MODEL 1
REMARK VINA RESULT:      -6.0      0.000      0.000
REMARK  11 active torsions:
REMARK  status: ('A' for Active; 'I' for Inactive)
REMARK    1  A    between atoms: C2_2  and  N3_3 
REMARK       I    between atoms: N3_3  and  C4_4 
REMARK    2  A    between atoms: N3_3  and  C17_17 
REMARK    3  A    between atoms: C4_4  and  C6_6 
REMARK    4  A    between atoms: C6_6  and  C7_7 
REMARK    5  A    between atoms: C10_10  and  S11_11 
REMARK    6  A    between atoms: N20_20  and  C21_21 
REMARK    7  A    between atoms: C21_21  and  C22_22 
REMARK    8  A    between atoms: C22_22  and  C23_23 
REMARK    9  A    between atoms: C23_23  and  C25_24 
REMARK   10  A    between atoms: C23_23  and  C33_32 
REMARK   11  A    between atoms: C36_35  and  S37_36 
ROOT
ATOM      1  C17 UNK A   1     -20.459   4.801  24.741  1.00  0.00     0.090 C 
ATOM      2  C18 UNK A   1     -19.882   4.877  26.158  1.00  0.00     0.053 C 
ATOM      3  C19 UNK A   1     -20.361   3.666  26.963  1.00  0.00     0.237 C 
ATOM      4  N20 UNK A   1     -19.919   2.431  26.300  1.00  0.00    -0.071 N 
ATOM      5  C43 UNK A   1     -20.500   2.314  24.956  1.00  0.00     0.237 C 
ATOM      6  C44 UNK A   1     -20.025   3.485  24.091  1.00  0.00     0.053 C 
ATOM      7  HN  UNK A   1     -18.915   2.475  26.201  1.00  0.00     0.279 HD
ENDROOT
BRANCH   4   8
ATOM      8  C21 UNK A   1     -20.240   1.252  27.117  1.00  0.00     0.235 C 
BRANCH   8   9
ATOM      9  C22 UNK A   1     -18.990   0.803  27.877  1.00  0.00     0.037 C 
BRANCH   9  10
ATOM     10  C23 UNK A   1     -19.241   0.913  29.382  1.00  0.00     0.024 C 
BRANCH  10  11
ATOM     11  C25 UNK A   1     -18.704  -0.315  30.071  1.00  0.00    -0.048 A 
ATOM     12  C26 UNK A   1     -19.542  -1.380  30.337  1.00  0.00     0.049 A 
ATOM     13  C27 UNK A   1     -19.048  -2.509  30.970  1.00  0.00     0.119 A 
ATOM     14  F28 UNK A   1     -19.868  -3.553  31.225  1.00  0.00    -0.206 F 
ATOM     15  C29 UNK A   1     -17.715  -2.570  31.335  1.00  0.00     0.084 A 
ATOM     16  C30 UNK A   1     -16.876  -1.502  31.067  1.00  0.00     0.119 A 
ATOM     17  F31 UNK A   1     -15.574  -1.560  31.425  1.00  0.00    -0.206 F 
ATOM     18  C32 UNK A   1     -17.371  -0.374  30.436  1.00  0.00     0.049 A 
ENDBRANCH  10  11
BRANCH  10  19
ATOM     19  C33 UNK A   1     -18.534   2.155  29.928  1.00  0.00    -0.006 C 
ATOM     20  C34 UNK A   1     -19.575   3.215  30.294  1.00  0.00     0.006 C 
ATOM     21  C35 UNK A   1     -18.867   4.457  30.840  1.00  0.00     0.020 C 
ATOM     22  C36 UNK A   1     -17.924   5.017  29.773  1.00  0.00     0.108 C 
ATOM     23  C41 UNK A   1     -16.883   3.956  29.407  1.00  0.00     0.020 C 
ATOM     24  C42 UNK A   1     -17.590   2.713  28.861  1.00  0.00     0.006 C 
BRANCH  22  25
ATOM     25  S37 UNK A   1     -17.083   6.488  30.421  1.00  0.00     0.144 S 
ATOM     26  C38 UNK A   1     -16.143   7.049  28.972  1.00  0.00     0.161 C 
ATOM     27  O39 UNK A   1     -18.062   7.469  30.732  1.00  0.00    -0.228 OA
ATOM     28  O40 UNK A   1     -16.165   6.079  31.425  1.00  0.00    -0.228 OA
ENDBRANCH  22  25
ENDBRANCH  10  19
ENDBRANCH   9  10
ENDBRANCH   8   9
ENDBRANCH   4   8
BRANCH   1  29
ATOM     29  N3  UNK A   1     -19.958   5.928  23.949  1.00  0.00    -0.347 N 
ATOM     30  C4  UNK A   1     -19.472   7.023  24.568  1.00  0.00     0.224 C 
ATOM     31  O5  UNK A   1     -19.452   7.076  25.780  1.00  0.00    -0.273 OA
BRANCH  29  32
ATOM     32  C2  UNK A   1     -19.984   5.863  22.485  1.00  0.00     0.122 C 
ATOM     33  C1  UNK A   1     -21.402   6.144  21.988  1.00  0.00     0.026 C 
ENDBRANCH  29  32
BRANCH  30  34
ATOM     34  C6  UNK A   1     -18.957   8.181  23.753  1.00  0.00     0.141 C 
BRANCH  34  35
ATOM     35  C7  UNK A   1     -17.791   8.817  24.466  1.00  0.00    -0.049 A 
ATOM     36  C8  UNK A   1     -17.749  10.189  24.632  1.00  0.00     0.009 A 
ATOM     37  C9  UNK A   1     -16.682  10.772  25.290  1.00  0.00     0.024 A 
ATOM     38  C10 UNK A   1     -15.653   9.986  25.774  1.00  0.00     0.058 A 
ATOM     39  C15 UNK A   1     -15.695   8.614  25.603  1.00  0.00     0.024 A 
ATOM     40  C16 UNK A   1     -16.763   8.030  24.950  1.00  0.00     0.009 A 
BRANCH  38  41
ATOM     41  S11 UNK A   1     -14.291  10.728  26.606  1.00  0.00     0.171 S 
ATOM     42  C12 UNK A   1     -13.269  11.420  25.276  1.00  0.00     0.167 C 
ATOM     43  O13 UNK A   1     -14.877  11.769  27.376  1.00  0.00    -0.223 OA
ATOM     44  O14 UNK A   1     -13.626   9.640  27.232  1.00  0.00    -0.223 OA
ENDBRANCH  38  41
ENDBRANCH  34  35
ENDBRANCH  30  34
ENDBRANCH   1  29
TORSDOF 11
ENDMDL
MODEL 2
REMARK VINA RESULT:      -5.8      3.631      6.408
REMARK  11 active torsions:
REMARK  status: ('A' for Active; 'I' for Inactive)
REMARK    1  A    between atoms: C2_2  and  N3_3 
REMARK       I    between atoms: N3_3  and  C4_4 
REMARK    2  A    between atoms: N3_3  and  C17_17 
REMARK    3  A    between atoms: C4_4  and  C6_6 
REMARK    4  A    between atoms: C6_6  and  C7_7 
REMARK    5  A    between atoms: C10_10  and  S11_11 
REMARK    6  A    between atoms: N20_20  and  C21_21 
REMARK    7  A    between atoms: C21_21  and  C22_22 
REMARK    8  A    between atoms: C22_22  and  C23_23 
REMARK    9  A    between atoms: C23_23  and  C25_24 
REMARK   10  A    between atoms: C23_23  and  C33_32 
REMARK   11  A    between atoms: C36_35  and  S37_36 
ROOT
ATOM      1  C17 UNK A   1     -17.740  10.104  24.790  1.00  0.00     0.090 C 
ATOM      2  C18 UNK A   1     -17.877   9.191  26.013  1.00  0.00     0.053 C 
ATOM      3  C19 UNK A   1     -18.985   8.166  25.755  1.00  0.00     0.237 C 
ATOM      4  N20 UNK A   1     -18.651   7.372  24.565  1.00  0.00    -0.071 N 
ATOM      5  C43 UNK A   1     -18.562   8.222  23.369  1.00  0.00     0.237 C 
ATOM      6  C44 UNK A   1     -17.441   9.249  23.555  1.00  0.00     0.053 C 
ATOM      7  HN  UNK A   1     -17.745   6.954  24.716  1.00  0.00     0.279 HD
ENDROOT
BRANCH   4   8
ATOM      8  C21 UNK A   1     -19.621   6.287  24.367  1.00  0.00     0.235 C 
BRANCH   8   9
ATOM      9  C22 UNK A   1     -20.268   5.931  25.708  1.00  0.00     0.037 C 
BRANCH   9  10
ATOM     10  C23 UNK A   1     -20.632   4.446  25.720  1.00  0.00     0.024 C 
BRANCH  10  11
ATOM     11  C25 UNK A   1     -20.671   3.927  24.305  1.00  0.00    -0.048 A 
ATOM     12  C26 UNK A   1     -21.119   2.644  24.052  1.00  0.00     0.049 A 
ATOM     13  C27 UNK A   1     -21.154   2.168  22.752  1.00  0.00     0.119 A 
ATOM     14  F28 UNK A   1     -21.598   0.916  22.504  1.00  0.00    -0.206 F 
ATOM     15  C29 UNK A   1     -20.743   2.976  21.707  1.00  0.00     0.084 A 
ATOM     16  C30 UNK A   1     -20.295   4.261  21.962  1.00  0.00     0.119 A 
ATOM     17  F31 UNK A   1     -19.892   5.051  20.943  1.00  0.00    -0.206 F 
ATOM     18  C32 UNK A   1     -20.259   4.736  23.262  1.00  0.00     0.049 A 
ENDBRANCH  10  11
BRANCH  10  19
ATOM     19  C33 UNK A   1     -19.583   3.670  26.519  1.00  0.00    -0.006 C 
ATOM     20  C34 UNK A   1     -20.277   2.833  27.595  1.00  0.00     0.006 C 
ATOM     21  C35 UNK A   1     -19.228   2.057  28.394  1.00  0.00     0.020 C 
ATOM     22  C36 UNK A   1     -18.262   3.040  29.058  1.00  0.00     0.108 C 
ATOM     23  C41 UNK A   1     -17.568   3.877  27.980  1.00  0.00     0.020 C 
ATOM     24  C42 UNK A   1     -18.617   4.654  27.181  1.00  0.00     0.006 C 
BRANCH  22  25
ATOM     25  S37 UNK A   1     -17.017   2.121  30.003  1.00  0.00     0.144 S 
ATOM     26  C38 UNK A   1     -17.855   0.534  30.280  1.00  0.00     0.161 C 
ATOM     27  O39 UNK A   1     -15.889   1.898  29.170  1.00  0.00    -0.228 OA
ATOM     28  O40 UNK A   1     -16.838   2.762  31.258  1.00  0.00    -0.228 OA
ENDBRANCH  22  25
ENDBRANCH  10  19
ENDBRANCH   9  10
ENDBRANCH   8   9
ENDBRANCH   4   8
BRANCH   1  29
ATOM     29  N3  UNK A   1     -16.643  11.051  25.008  1.00  0.00    -0.347 N 
ATOM     30  C4  UNK A   1     -15.376  10.692  24.720  1.00  0.00     0.224 C 
ATOM     31  O5  UNK A   1     -15.145   9.584  24.284  1.00  0.00    -0.273 OA
BRANCH  29  32
ATOM     32  C2  UNK A   1     -16.924  12.389  25.536  1.00  0.00     0.122 C 
ATOM     33  C1  UNK A   1     -18.437  12.607  25.593  1.00  0.00     0.026 C 
ENDBRANCH  29  32
BRANCH  30  34
ATOM     34  C6  UNK A   1     -14.249  11.666  24.944  1.00  0.00     0.141 C 
BRANCH  34  35
ATOM     35  C7  UNK A   1     -13.744  11.533  26.358  1.00  0.00    -0.049 A 
ATOM     36  C8  UNK A   1     -13.190  12.627  26.998  1.00  0.00     0.009 A 
ATOM     37  C9  UNK A   1     -12.732  12.507  28.298  1.00  0.00     0.024 A 
ATOM     38  C10 UNK A   1     -12.818  11.293  28.953  1.00  0.00     0.058 A 
ATOM     39  C15 UNK A   1     -13.368  10.200  28.309  1.00  0.00     0.024 A 
ATOM     40  C16 UNK A   1     -13.830  10.320  27.013  1.00  0.00     0.009 A 
BRANCH  38  41
ATOM     41  S11 UNK A   1     -12.228  11.138  30.605  1.00  0.00     0.171 S 
ATOM     42  C12 UNK A   1     -11.323  12.681  30.910  1.00  0.00     0.167 C 
ATOM     43  O13 UNK A   1     -13.409  11.089  31.394  1.00  0.00    -0.223 OA
ATOM     44  O14 UNK A   1     -11.334  10.035  30.556  1.00  0.00    -0.223 OA
ENDBRANCH  38  41
ENDBRANCH  34  35
ENDBRANCH  30  34
ENDBRANCH   1  29
TORSDOF 11
ENDMDL
MODEL 3
REMARK VINA RESULT:      -5.8      3.778      6.318
REMARK  11 active torsions:
REMARK  status: ('A' for Active; 'I' for Inactive)
REMARK    1  A    between atoms: C2_2  and  N3_3 
REMARK       I    between atoms: N3_3  and  C4_4 
REMARK    2  A    between atoms: N3_3  and  C17_17 
REMARK    3  A    between atoms: C4_4  and  C6_6 
REMARK    4  A    between atoms: C6_6  and  C7_7 
REMARK    5  A    between atoms: C10_10  and  S11_11 
REMARK    6  A    between atoms: N20_20  and  C21_21 
REMARK    7  A    between atoms: C21_21  and  C22_22 
REMARK    8  A    between atoms: C22_22  and  C23_23 
REMARK    9  A    between atoms: C23_23  and  C25_24 
REMARK   10  A    between atoms: C23_23  and  C33_32 
REMARK   11  A    between atoms: C36_35  and  S37_36 
ROOT
ATOM      1  C17 UNK A   1     -18.406   9.228  25.386  1.00  0.00     0.090 C 
ATOM      2  C18 UNK A   1     -18.475   8.030  26.340  1.00  0.00     0.053 C 
ATOM      3  C19 UNK A   1     -19.633   7.121  25.923  1.00  0.00     0.237 C 
ATOM      4  N20 UNK A   1     -19.424   6.659  24.544  1.00  0.00    -0.071 N 
ATOM      5  C43 UNK A   1     -19.402   7.789  23.605  1.00  0.00     0.237 C 
ATOM      6  C44 UNK A   1     -18.236   8.719  23.952  1.00  0.00     0.053 C 
ATOM      7  HN  UNK A   1     -18.523   6.205  24.504  1.00  0.00     0.279 HD
ENDROOT
BRANCH   4   8
ATOM      8  C21 UNK A   1     -20.442   5.674  24.159  1.00  0.00     0.235 C 
BRANCH   8   9
ATOM      9  C22 UNK A   1     -20.949   4.949  25.407  1.00  0.00     0.037 C 
BRANCH   9  10
ATOM     10  C23 UNK A   1     -20.871   3.437  25.187  1.00  0.00     0.024 C 
BRANCH  10  11
ATOM     11  C25 UNK A   1     -20.638   3.156  23.724  1.00  0.00    -0.048 A 
ATOM     12  C26 UNK A   1     -20.826   1.879  23.228  1.00  0.00     0.049 A 
ATOM     13  C27 UNK A   1     -20.612   1.620  21.885  1.00  0.00     0.119 A 
ATOM     14  F28 UNK A   1     -20.802   0.373  21.399  1.00  0.00    -0.206 F 
ATOM     15  C29 UNK A   1     -20.212   2.639  21.038  1.00  0.00     0.084 A 
ATOM     16  C30 UNK A   1     -20.024   3.917  21.537  1.00  0.00     0.119 A 
ATOM     17  F31 UNK A   1     -19.631   4.913  20.712  1.00  0.00    -0.206 F 
ATOM     18  C32 UNK A   1     -20.237   4.175  22.880  1.00  0.00     0.049 A 
ENDBRANCH  10  11
BRANCH  10  19
ATOM     19  C33 UNK A   1     -19.716   2.861  26.007  1.00  0.00    -0.006 C 
ATOM     20  C34 UNK A   1     -20.269   1.899  27.061  1.00  0.00     0.006 C 
ATOM     21  C35 UNK A   1     -19.114   1.322  27.882  1.00  0.00     0.020 C 
ATOM     22  C36 UNK A   1     -18.363   2.460  28.575  1.00  0.00     0.108 C 
ATOM     23  C41 UNK A   1     -17.810   3.422  27.521  1.00  0.00     0.020 C 
ATOM     24  C42 UNK A   1     -18.965   4.000  26.700  1.00  0.00     0.006 C 
BRANCH  22  25
ATOM     25  S37 UNK A   1     -16.992   1.777  29.547  1.00  0.00     0.144 S 
ATOM     26  C38 UNK A   1     -16.894   2.949  30.930  1.00  0.00     0.161 C 
ATOM     27  O39 UNK A   1     -17.383   0.510  30.054  1.00  0.00    -0.228 OA
ATOM     28  O40 UNK A   1     -15.800   1.881  28.781  1.00  0.00    -0.228 OA
ENDBRANCH  22  25
ENDBRANCH  10  19
ENDBRANCH   9  10
ENDBRANCH   8   9
ENDBRANCH   4   8
BRANCH   1  29
ATOM     29  N3  UNK A   1     -17.263  10.073  25.745  1.00  0.00    -0.347 N 
ATOM     30  C4  UNK A   1     -17.342  10.895  26.812  1.00  0.00     0.224 C 
ATOM     31  O5  UNK A   1     -18.359  10.935  27.471  1.00  0.00    -0.273 OA
BRANCH  29  32
ATOM     32  C2  UNK A   1     -16.035  10.023  24.947  1.00  0.00     0.122 C 
ATOM     33  C1  UNK A   1     -15.235   8.775  25.321  1.00  0.00     0.026 C 
ENDBRANCH  29  32
BRANCH  30  34
ATOM     34  C6  UNK A   1     -16.168  11.763  27.181  1.00  0.00     0.141 C 
BRANCH  34  35
ATOM     35  C7  UNK A   1     -15.198  10.967  28.017  1.00  0.00    -0.049 A 
ATOM     36  C8  UNK A   1     -13.837  11.136  27.843  1.00  0.00     0.009 A 
ATOM     37  C9  UNK A   1     -12.947  10.410  28.614  1.00  0.00     0.024 A 
ATOM     38  C10 UNK A   1     -13.418   9.509  29.550  1.00  0.00     0.058 A 
ATOM     39  C15 UNK A   1     -14.779   9.338  29.719  1.00  0.00     0.024 A 
ATOM     40  C16 UNK A   1     -15.669  10.066  28.953  1.00  0.00     0.009 A 
BRANCH  38  41
ATOM     41  S11 UNK A   1     -12.285   8.579  30.527  1.00  0.00     0.171 S 
ATOM     42  C12 UNK A   1     -11.324   9.831  31.422  1.00  0.00     0.167 C 
ATOM     43  O13 UNK A   1     -13.113   7.851  31.424  1.00  0.00    -0.223 OA
ATOM     44  O14 UNK A   1     -11.470   7.909  29.576  1.00  0.00    -0.223 OA
ENDBRANCH  38  41
ENDBRANCH  34  35
ENDBRANCH  30  34
ENDBRANCH   1  29
TORSDOF 11
ENDMDL
MODEL 4
REMARK VINA RESULT:      -5.3      4.308      9.407
REMARK  11 active torsions:
REMARK  status: ('A' for Active; 'I' for Inactive)
REMARK    1  A    between atoms: C2_2  and  N3_3 
REMARK       I    between atoms: N3_3  and  C4_4 
REMARK    2  A    between atoms: N3_3  and  C17_17 
REMARK    3  A    between atoms: C4_4  and  C6_6 
REMARK    4  A    between atoms: C6_6  and  C7_7 
REMARK    5  A    between atoms: C10_10  and  S11_11 
REMARK    6  A    between atoms: N20_20  and  C21_21 
REMARK    7  A    between atoms: C21_21  and  C22_22 
REMARK    8  A    between atoms: C22_22  and  C23_23 
REMARK    9  A    between atoms: C23_23  and  C25_24 
REMARK   10  A    between atoms: C23_23  and  C33_32 
REMARK   11  A    between atoms: C36_35  and  S37_36 
ROOT
ATOM      1  C17 UNK A   1     -17.530   5.949  28.632  1.00  0.00     0.090 C 
ATOM      2  C18 UNK A   1     -16.907   5.966  30.031  1.00  0.00     0.053 C 
ATOM      3  C19 UNK A   1     -16.085   7.246  30.202  1.00  0.00     0.237 C 
ATOM      4  N20 UNK A   1     -16.954   8.416  30.019  1.00  0.00    -0.071 N 
ATOM      5  C43 UNK A   1     -17.526   8.446  28.666  1.00  0.00     0.237 C 
ATOM      6  C44 UNK A   1     -18.392   7.202  28.450  1.00  0.00     0.053 C 
ATOM      7  HN  UNK A   1     -17.717   8.340  30.676  1.00  0.00     0.279 HD
ENDROOT
BRANCH   4   8
ATOM      8  C21 UNK A   1     -16.231   9.660  30.312  1.00  0.00     0.235 C 
BRANCH   8   9
ATOM      9  C22 UNK A   1     -16.466  10.665  29.183  1.00  0.00     0.037 C 
BRANCH   9  10
ATOM     10  C23 UNK A   1     -15.122  11.083  28.583  1.00  0.00     0.024 C 
BRANCH  10  11
ATOM     11  C25 UNK A   1     -14.185   9.901  28.582  1.00  0.00    -0.048 A 
ATOM     12  C26 UNK A   1     -13.172   9.823  29.518  1.00  0.00     0.049 A 
ATOM     13  C27 UNK A   1     -12.312   8.737  29.517  1.00  0.00     0.119 A 
ATOM     14  F28 UNK A   1     -11.325   8.658  30.437  1.00  0.00    -0.206 F 
ATOM     15  C29 UNK A   1     -12.466   7.732  28.580  1.00  0.00     0.084 A 
ATOM     16  C30 UNK A   1     -13.482   7.813  27.642  1.00  0.00     0.119 A 
ATOM     17  F31 UNK A   1     -13.633   6.832  26.724  1.00  0.00    -0.206 F 
ATOM     18  C32 UNK A   1     -14.341   8.898  27.643  1.00  0.00     0.049 A 
ENDBRANCH  10  11
BRANCH  10  19
ATOM     19  C33 UNK A   1     -15.333  11.568  27.148  1.00  0.00    -0.006 C 
ATOM     20  C34 UNK A   1     -16.790  11.340  26.741  1.00  0.00     0.006 C 
ATOM     21  C35 UNK A   1     -17.001  11.825  25.305  1.00  0.00     0.020 C 
ATOM     22  C36 UNK A   1     -16.082  11.045  24.364  1.00  0.00     0.108 C 
ATOM     23  C41 UNK A   1     -14.624  11.272  24.771  1.00  0.00     0.020 C 
ATOM     24  C42 UNK A   1     -14.413  10.787  26.207  1.00  0.00     0.006 C 
BRANCH  22  25
ATOM     25  S37 UNK A   1     -16.330  11.621  22.661  1.00  0.00     0.144 S 
ATOM     26  C38 UNK A   1     -14.708  12.333  22.268  1.00  0.00     0.161 C 
ATOM     27  O39 UNK A   1     -16.543  10.491  21.828  1.00  0.00    -0.228 OA
ATOM     28  O40 UNK A   1     -17.292  12.666  22.674  1.00  0.00    -0.228 OA
ENDBRANCH  22  25
ENDBRANCH  10  19
ENDBRANCH   9  10
ENDBRANCH   8   9
ENDBRANCH   4   8
BRANCH   1  29
ATOM     29  N3  UNK A   1     -18.364   4.754  28.483  1.00  0.00    -0.347 N 
ATOM     30  C4  UNK A   1     -19.362   4.737  27.575  1.00  0.00     0.224 C 
ATOM     31  O5  UNK A   1     -19.568   5.712  26.884  1.00  0.00    -0.273 OA
BRANCH  29  32
ATOM     32  C2  UNK A   1     -18.115   3.576  29.319  1.00  0.00     0.122 C 
ATOM     33  C1  UNK A   1     -16.906   2.814  28.776  1.00  0.00     0.026 C 
ENDBRANCH  29  32
BRANCH  30  34
ATOM     34  C6  UNK A   1     -20.219   3.508  27.422  1.00  0.00     0.141 C 
BRANCH  34  35
ATOM     35  C7  UNK A   1     -20.397   3.199  25.958  1.00  0.00    -0.049 A 
ATOM     36  C8  UNK A   1     -20.149   1.923  25.486  1.00  0.00     0.009 A 
ATOM     37  C9  UNK A   1     -20.317   1.638  24.143  1.00  0.00     0.024 A 
ATOM     38  C10 UNK A   1     -20.723   2.630  23.271  1.00  0.00     0.058 A 
ATOM     39  C15 UNK A   1     -20.965   3.907  23.743  1.00  0.00     0.024 A 
ATOM     40  C16 UNK A   1     -20.803   4.191  25.085  1.00  0.00     0.009 A 
BRANCH  38  41
ATOM     41  S11 UNK A   1     -20.930   2.270  21.560  1.00  0.00     0.171 S 
ATOM     42  C12 UNK A   1     -19.643   3.245  20.731  1.00  0.00     0.167 C 
ATOM     43  O13 UNK A   1     -20.645   0.881  21.458  1.00  0.00    -0.223 OA
ATOM     44  O14 UNK A   1     -22.220   2.777  21.248  1.00  0.00    -0.223 OA
ENDBRANCH  38  41
ENDBRANCH  34  35
ENDBRANCH  30  34
ENDBRANCH   1  29
TORSDOF 11
ENDMDL
MODEL 5
REMARK VINA RESULT:      -4.6      3.772      9.078
REMARK  11 active torsions:
REMARK  status: ('A' for Active; 'I' for Inactive)
REMARK    1  A    between atoms: C2_2  and  N3_3 
REMARK       I    between atoms: N3_3  and  C4_4 
REMARK    2  A    between atoms: N3_3  and  C17_17 
REMARK    3  A    between atoms: C4_4  and  C6_6 
REMARK    4  A    between atoms: C6_6  and  C7_7 
REMARK    5  A    between atoms: C10_10  and  S11_11 
REMARK    6  A    between atoms: N20_20  and  C21_21 
REMARK    7  A    between atoms: C21_21  and  C22_22 
REMARK    8  A    between atoms: C22_22  and  C23_23 
REMARK    9  A    between atoms: C23_23  and  C25_24 
REMARK   10  A    between atoms: C23_23  and  C33_32 
REMARK   11  A    between atoms: C36_35  and  S37_36 
ROOT
ATOM      1  C17 UNK A   1     -19.159   6.875  25.996  1.00  0.00     0.090 C 
ATOM      2  C18 UNK A   1     -18.324   7.723  25.030  1.00  0.00     0.053 C 
ATOM      3  C19 UNK A   1     -18.276   9.166  25.539  1.00  0.00     0.237 C 
ATOM      4  N20 UNK A   1     -17.681   9.193  26.882  1.00  0.00    -0.071 N 
ATOM      5  C43 UNK A   1     -18.491   8.425  27.837  1.00  0.00     0.237 C 
ATOM      6  C44 UNK A   1     -18.546   6.959  27.397  1.00  0.00     0.053 C 
ATOM      7  HN  UNK A   1     -16.772   8.756  26.827  1.00  0.00     0.279 HD
ENDROOT
BRANCH   4   8
ATOM      8  C21 UNK A   1     -17.490  10.573  27.345  1.00  0.00     0.235 C 
BRANCH   8   9
ATOM      9  C22 UNK A   1     -16.717  10.566  28.666  1.00  0.00     0.037 C 
BRANCH   9  10
ATOM     10  C23 UNK A   1     -15.216  10.636  28.380  1.00  0.00     0.024 C 
BRANCH  10  11
ATOM     11  C25 UNK A   1     -14.604   9.271  28.575  1.00  0.00    -0.048 A 
ATOM     12  C26 UNK A   1     -15.418   8.163  28.712  1.00  0.00     0.049 A 
ATOM     13  C27 UNK A   1     -14.857   6.910  28.891  1.00  0.00     0.119 A 
ATOM     14  F28 UNK A   1     -15.653   5.826  29.020  1.00  0.00    -0.206 F 
ATOM     15  C29 UNK A   1     -13.482   6.767  28.931  1.00  0.00     0.084 A 
ATOM     16  C30 UNK A   1     -12.668   7.878  28.793  1.00  0.00     0.119 A 
ATOM     17  F31 UNK A   1     -11.324   7.740  28.834  1.00  0.00    -0.206 F 
ATOM     18  C32 UNK A   1     -13.229   9.130  28.615  1.00  0.00     0.049 A 
ENDBRANCH  10  11
BRANCH  10  19
ATOM     19  C33 UNK A   1     -14.992  11.093  26.937  1.00  0.00    -0.006 C 
ATOM     20  C34 UNK A   1     -16.149  11.995  26.503  1.00  0.00     0.006 C 
ATOM     21  C35 UNK A   1     -15.926  12.453  25.060  1.00  0.00     0.020 C 
ATOM     22  C36 UNK A   1     -15.862  11.231  24.142  1.00  0.00     0.108 C 
ATOM     23  C41 UNK A   1     -14.705  10.327  24.577  1.00  0.00     0.020 C 
ATOM     24  C42 UNK A   1     -14.928   9.870  26.020  1.00  0.00     0.006 C 
BRANCH  22  25
ATOM     25  S37 UNK A   1     -15.596  11.772  22.431  1.00  0.00     0.144 S 
ATOM     26  C38 UNK A   1     -17.126  12.685  22.086  1.00  0.00     0.161 C 
ATOM     27  O39 UNK A   1     -14.509  12.685  22.409  1.00  0.00    -0.228 OA
ATOM     28  O40 UNK A   1     -15.556  10.624  21.595  1.00  0.00    -0.228 OA
ENDBRANCH  22  25
ENDBRANCH  10  19
ENDBRANCH   9  10
ENDBRANCH   8   9
ENDBRANCH   4   8
BRANCH   1  29
ATOM     29  N3  UNK A   1     -19.162   5.481  25.544  1.00  0.00    -0.347 N 
ATOM     30  C4  UNK A   1     -20.314   4.779  25.533  1.00  0.00     0.224 C 
ATOM     31  O5  UNK A   1     -21.345   5.302  25.898  1.00  0.00    -0.273 OA
BRANCH  29  32
ATOM     32  C2  UNK A   1     -17.915   4.850  25.104  1.00  0.00     0.122 C 
ATOM     33  C1  UNK A   1     -17.124   4.378  26.325  1.00  0.00     0.026 C 
ENDBRANCH  29  32
BRANCH  30  34
ATOM     34  C6  UNK A   1     -20.317   3.347  25.068  1.00  0.00     0.141 C 
BRANCH  34  35
ATOM     35  C7  UNK A   1     -20.124   2.435  26.253  1.00  0.00    -0.049 A 
ATOM     36  C8  UNK A   1     -20.533   2.840  27.510  1.00  0.00     0.009 A 
ATOM     37  C9  UNK A   1     -20.361   2.001  28.596  1.00  0.00     0.024 A 
ATOM     38  C10 UNK A   1     -19.772   0.762  28.427  1.00  0.00     0.058 A 
ATOM     39  C15 UNK A   1     -19.358   0.361  27.171  1.00  0.00     0.024 A 
ATOM     40  C16 UNK A   1     -19.534   1.196  26.084  1.00  0.00     0.009 A 
BRANCH  38  41
ATOM     41  S11 UNK A   1     -19.546  -0.303  29.811  1.00  0.00     0.171 S 
ATOM     42  C12 UNK A   1     -17.999   0.264  30.573  1.00  0.00     0.167 C 
ATOM     43  O13 UNK A   1     -20.652  -0.016  30.657  1.00  0.00    -0.223 OA
ATOM     44  O14 UNK A   1     -19.378  -1.592  29.238  1.00  0.00    -0.223 OA
ENDBRANCH  38  41
ENDBRANCH  34  35
ENDBRANCH  30  34
ENDBRANCH   1  29
TORSDOF 11
ENDMDL
MODEL 6
REMARK VINA RESULT:      -4.3      4.604     10.073
REMARK  11 active torsions:
REMARK  status: ('A' for Active; 'I' for Inactive)
REMARK    1  A    between atoms: C2_2  and  N3_3 
REMARK       I    between atoms: N3_3  and  C4_4 
REMARK    2  A    between atoms: N3_3  and  C17_17 
REMARK    3  A    between atoms: C4_4  and  C6_6 
REMARK    4  A    between atoms: C6_6  and  C7_7 
REMARK    5  A    between atoms: C10_10  and  S11_11 
REMARK    6  A    between atoms: N20_20  and  C21_21 
REMARK    7  A    between atoms: C21_21  and  C22_22 
REMARK    8  A    between atoms: C22_22  and  C23_23 
REMARK    9  A    between atoms: C23_23  and  C25_24 
REMARK   10  A    between atoms: C23_23  and  C33_32 
REMARK   11  A    between atoms: C36_35  and  S37_36 
ROOT
ATOM      1  C17 UNK A   1     -18.057   6.955  26.096  1.00  0.00     0.090 C 
ATOM      2  C18 UNK A   1     -16.693   6.481  26.609  1.00  0.00     0.053 C 
ATOM      3  C19 UNK A   1     -15.908   7.684  27.138  1.00  0.00     0.237 C 
ATOM      4  N20 UNK A   1     -16.664   8.324  28.224  1.00  0.00    -0.071 N 
ATOM      5  C43 UNK A   1     -17.958   8.828  27.743  1.00  0.00     0.237 C 
ATOM      6  C44 UNK A   1     -18.804   7.660  27.231  1.00  0.00     0.053 C 
ATOM      7  HN  UNK A   1     -16.848   7.623  28.927  1.00  0.00     0.279 HD
ENDROOT
BRANCH   4   8
ATOM      8  C21 UNK A   1     -15.881   9.397  28.850  1.00  0.00     0.235 C 
BRANCH   8   9
ATOM      9  C22 UNK A   1     -16.756  10.641  29.010  1.00  0.00     0.037 C 
BRANCH   9  10
ATOM     10  C23 UNK A   1     -15.956  11.883  28.614  1.00  0.00     0.024 C 
BRANCH  10  11
ATOM     11  C25 UNK A   1     -14.488  11.628  28.845  1.00  0.00    -0.048 A 
ATOM     12  C26 UNK A   1     -13.570  11.945  27.862  1.00  0.00     0.049 A 
ATOM     13  C27 UNK A   1     -12.221  11.711  28.074  1.00  0.00     0.119 A 
ATOM     14  F28 UNK A   1     -11.323  12.026  27.115  1.00  0.00    -0.206 F 
ATOM     15  C29 UNK A   1     -11.793  11.161  29.269  1.00  0.00     0.084 A 
ATOM     16  C30 UNK A   1     -12.715  10.845  30.253  1.00  0.00     0.119 A 
ATOM     17  F31 UNK A   1     -12.299  10.307  31.421  1.00  0.00    -0.206 F 
ATOM     18  C32 UNK A   1     -14.063  11.078  30.040  1.00  0.00     0.049 A 
ENDBRANCH  10  11
BRANCH  10  19
ATOM     19  C33 UNK A   1     -16.193  12.192  27.135  1.00  0.00    -0.006 C 
ATOM     20  C34 UNK A   1     -17.676  12.006  26.806  1.00  0.00     0.006 C 
ATOM     21  C35 UNK A   1     -17.914  12.316  25.327  1.00  0.00     0.020 C 
ATOM     22  C36 UNK A   1     -17.078  11.365  24.467  1.00  0.00     0.108 C 
ATOM     23  C41 UNK A   1     -15.595  11.551  24.796  1.00  0.00     0.020 C 
ATOM     24  C42 UNK A   1     -15.357  11.242  26.275  1.00  0.00     0.006 C 
BRANCH  22  25
ATOM     25  S37 UNK A   1     -17.358  11.733  22.712  1.00  0.00     0.144 S 
ATOM     26  C38 UNK A   1     -16.980  10.138  21.932  1.00  0.00     0.161 C 
ATOM     27  O39 UNK A   1     -18.737  12.014  22.523  1.00  0.00    -0.228 OA
ATOM     28  O40 UNK A   1     -16.390  12.683  22.290  1.00  0.00    -0.228 OA
ENDBRANCH  22  25
ENDBRANCH  10  19
ENDBRANCH   9  10
ENDBRANCH   8   9
ENDBRANCH   4   8
BRANCH   1  29
ATOM     29  N3  UNK A   1     -18.835   5.800  25.640  1.00  0.00    -0.347 N 
ATOM     30  C4  UNK A   1     -18.524   4.562  26.077  1.00  0.00     0.224 C 
ATOM     31  O5  UNK A   1     -17.598   4.407  26.846  1.00  0.00    -0.273 OA
BRANCH  29  32
ATOM     32  C2  UNK A   1     -19.952   5.989  24.710  1.00  0.00     0.122 C 
ATOM     33  C1  UNK A   1     -19.487   6.829  23.520  1.00  0.00     0.026 C 
ENDBRANCH  29  32
BRANCH  30  34
ATOM     34  C6  UNK A   1     -19.324   3.375  25.608  1.00  0.00     0.141 C 
BRANCH  34  35
ATOM     35  C7  UNK A   1     -19.480   2.395  26.743  1.00  0.00    -0.049 A 
ATOM     36  C8  UNK A   1     -20.167   2.765  27.885  1.00  0.00     0.009 A 
ATOM     37  C9  UNK A   1     -20.315   1.864  28.923  1.00  0.00     0.024 A 
ATOM     38  C10 UNK A   1     -19.767   0.598  28.825  1.00  0.00     0.058 A 
ATOM     39  C15 UNK A   1     -19.076   0.233  27.685  1.00  0.00     0.024 A 
ATOM     40  C16 UNK A   1     -18.932   1.130  26.645  1.00  0.00     0.009 A 
BRANCH  38  41
ATOM     41  S11 UNK A   1     -19.949  -0.546  30.151  1.00  0.00     0.171 S 
ATOM     42  C12 UNK A   1     -18.450  -0.325  31.150  1.00  0.00     0.167 C 
ATOM     43  O13 UNK A   1     -21.092  -0.083  30.858  1.00  0.00    -0.223 OA
ATOM     44  O14 UNK A   1     -19.945  -1.819  29.519  1.00  0.00    -0.223 OA
ENDBRANCH  38  41
ENDBRANCH  34  35
ENDBRANCH  30  34
ENDBRANCH   1  29
TORSDOF 11
ENDMDL
MODEL 7
REMARK VINA RESULT:      -3.6      4.047      9.579
REMARK  11 active torsions:
REMARK  status: ('A' for Active; 'I' for Inactive)
REMARK    1  A    between atoms: C2_2  and  N3_3 
REMARK       I    between atoms: N3_3  and  C4_4 
REMARK    2  A    between atoms: N3_3  and  C17_17 
REMARK    3  A    between atoms: C4_4  and  C6_6 
REMARK    4  A    between atoms: C6_6  and  C7_7 
REMARK    5  A    between atoms: C10_10  and  S11_11 
REMARK    6  A    between atoms: N20_20  and  C21_21 
REMARK    7  A    between atoms: C21_21  and  C22_22 
REMARK    8  A    between atoms: C22_22  and  C23_23 
REMARK    9  A    between atoms: C23_23  and  C25_24 
REMARK   10  A    between atoms: C23_23  and  C33_32 
REMARK   11  A    between atoms: C36_35  and  S37_36 
ROOT
ATOM      1  C17 UNK A   1     -19.766   6.192  25.328  1.00  0.00     0.090 C 
ATOM      2  C18 UNK A   1     -18.698   6.997  24.582  1.00  0.00     0.053 C 
ATOM      3  C19 UNK A   1     -19.023   8.489  24.691  1.00  0.00     0.237 C 
ATOM      4  N20 UNK A   1     -19.057   8.882  26.106  1.00  0.00    -0.071 N 
ATOM      5  C43 UNK A   1     -20.108   8.156  26.832  1.00  0.00     0.237 C 
ATOM      6  C44 UNK A   1     -19.815   6.654  26.788  1.00  0.00     0.053 C 
ATOM      7  HN  UNK A   1     -18.169   8.634  26.517  1.00  0.00     0.279 HD
ENDROOT
BRANCH   4   8
ATOM      8  C21 UNK A   1     -19.228  10.334  26.245  1.00  0.00     0.235 C 
BRANCH   8   9
ATOM      9  C22 UNK A   1     -18.510  10.813  27.508  1.00  0.00     0.037 C 
BRANCH   9  10
ATOM     10  C23 UNK A   1     -17.071  11.199  27.162  1.00  0.00     0.024 C 
BRANCH  10  11
ATOM     11  C25 UNK A   1     -16.117  10.319  27.930  1.00  0.00    -0.048 A 
ATOM     12  C26 UNK A   1     -15.199  10.885  28.794  1.00  0.00     0.049 A 
ATOM     13  C27 UNK A   1     -14.323  10.077  29.499  1.00  0.00     0.119 A 
ATOM     14  F28 UNK A   1     -13.429  10.631  30.348  1.00  0.00    -0.206 F 
ATOM     15  C29 UNK A   1     -14.367   8.704  29.340  1.00  0.00     0.084 A 
ATOM     16  C30 UNK A   1     -15.288   8.138  28.474  1.00  0.00     0.119 A 
ATOM     17  F31 UNK A   1     -15.332   6.797  28.316  1.00  0.00    -0.206 F 
ATOM     18  C32 UNK A   1     -16.163   8.947  27.769  1.00  0.00     0.049 A 
ENDBRANCH  10  11
BRANCH  10  19
ATOM     19  C33 UNK A   1     -16.840  11.013  25.661  1.00  0.00    -0.006 C 
ATOM     20  C34 UNK A   1     -15.586  11.781  25.240  1.00  0.00     0.006 C 
ATOM     21  C35 UNK A   1     -15.354  11.596  23.738  1.00  0.00     0.020 C 
ATOM     22  C36 UNK A   1     -16.562  12.130  22.966  1.00  0.00     0.108 C 
ATOM     23  C41 UNK A   1     -17.817  11.361  23.389  1.00  0.00     0.020 C 
ATOM     24  C42 UNK A   1     -18.048  11.547  24.890  1.00  0.00     0.006 C 
BRANCH  22  25
ATOM     25  S37 UNK A   1     -16.289  11.908  21.187  1.00  0.00     0.144 S 
ATOM     26  C38 UNK A   1     -14.662  12.680  20.960  1.00  0.00     0.161 C 
ATOM     27  O39 UNK A   1     -16.173  10.519  20.916  1.00  0.00    -0.228 OA
ATOM     28  O40 UNK A   1     -17.255  12.675  20.482  1.00  0.00    -0.228 OA
ENDBRANCH  22  25
ENDBRANCH  10  19
ENDBRANCH   9  10
ENDBRANCH   8   9
ENDBRANCH   4   8
BRANCH   1  29
ATOM     29  N3  UNK A   1     -19.430   4.767  25.276  1.00  0.00    -0.347 N 
ATOM     30  C4  UNK A   1     -20.223   3.912  24.599  1.00  0.00     0.224 C 
ATOM     31  O5  UNK A   1     -21.216   4.323  24.036  1.00  0.00    -0.273 OA
BRANCH  29  32
ATOM     32  C2  UNK A   1     -18.231   4.271  25.957  1.00  0.00     0.122 C 
ATOM     33  C1  UNK A   1     -16.990   4.914  25.336  1.00  0.00     0.026 C 
ENDBRANCH  29  32
BRANCH  30  34
ATOM     34  C6  UNK A   1     -19.877   2.447  24.545  1.00  0.00     0.141 C 
BRANCH  34  35
ATOM     35  C7  UNK A   1     -19.851   1.885  25.944  1.00  0.00    -0.049 A 
ATOM     36  C8  UNK A   1     -19.013   0.827  26.247  1.00  0.00     0.009 A 
ATOM     37  C9  UNK A   1     -18.985   0.316  27.532  1.00  0.00     0.024 A 
ATOM     38  C10 UNK A   1     -19.801   0.854  28.509  1.00  0.00     0.058 A 
ATOM     39  C15 UNK A   1     -20.641   1.908  28.203  1.00  0.00     0.024 A 
ATOM     40  C16 UNK A   1     -20.666   2.423  26.921  1.00  0.00     0.009 A 
BRANCH  38  41
ATOM     41  S11 UNK A   1     -19.770   0.197  30.143  1.00  0.00     0.171 S 
ATOM     42  C12 UNK A   1     -18.785   1.389  31.093  1.00  0.00     0.167 C 
ATOM     43  O13 UNK A   1     -21.129   0.231  30.558  1.00  0.00    -0.223 OA
ATOM     44  O14 UNK A   1     -19.075  -1.035  30.014  1.00  0.00    -0.223 OA
ENDBRANCH  38  41
ENDBRANCH  34  35
ENDBRANCH  30  34
ENDBRANCH   1  29
TORSDOF 11
ENDMDL
MODEL 8
REMARK VINA RESULT:      -3.4      4.413      9.239
REMARK  11 active torsions:
REMARK  status: ('A' for Active; 'I' for Inactive)
REMARK    1  A    between atoms: C2_2  and  N3_3 
REMARK       I    between atoms: N3_3  and  C4_4 
REMARK    2  A    between atoms: N3_3  and  C17_17 
REMARK    3  A    between atoms: C4_4  and  C6_6 
REMARK    4  A    between atoms: C6_6  and  C7_7 
REMARK    5  A    between atoms: C10_10  and  S11_11 
REMARK    6  A    between atoms: N20_20  and  C21_21 
REMARK    7  A    between atoms: C21_21  and  C22_22 
REMARK    8  A    between atoms: C22_22  and  C23_23 
REMARK    9  A    between atoms: C23_23  and  C25_24 
REMARK   10  A    between atoms: C23_23  and  C33_32 
REMARK   11  A    between atoms: C36_35  and  S37_36 
ROOT
ATOM      1  C17 UNK A   1     -19.984   6.334  24.382  1.00  0.00     0.090 C 
ATOM      2  C18 UNK A   1     -18.817   6.916  23.578  1.00  0.00     0.053 C 
ATOM      3  C19 UNK A   1     -18.896   8.444  23.611  1.00  0.00     0.237 C 
ATOM      4  N20 UNK A   1     -18.833   8.909  25.003  1.00  0.00    -0.071 N 
ATOM      5  C43 UNK A   1     -19.970   8.401  25.783  1.00  0.00     0.237 C 
ATOM      6  C44 UNK A   1     -19.924   6.871  25.815  1.00  0.00     0.053 C 
ATOM      7  HN  UNK A   1     -17.987   8.542  25.414  1.00  0.00     0.279 HD
ENDROOT
BRANCH   4   8
ATOM      8  C21 UNK A   1     -18.765  10.375  25.066  1.00  0.00     0.235 C 
BRANCH   8   9
ATOM      9  C22 UNK A   1     -17.864  10.794  26.229  1.00  0.00     0.037 C 
BRANCH   9  10
ATOM     10  C23 UNK A   1     -16.561   9.995  26.179  1.00  0.00     0.024 C 
BRANCH  10  11
ATOM     11  C25 UNK A   1     -15.395  10.944  26.061  1.00  0.00    -0.048 A 
ATOM     12  C26 UNK A   1     -14.735  11.372  27.197  1.00  0.00     0.049 A 
ATOM     13  C27 UNK A   1     -13.665  12.243  27.088  1.00  0.00     0.119 A 
ATOM     14  F28 UNK A   1     -13.016  12.658  28.199  1.00  0.00    -0.206 F 
ATOM     15  C29 UNK A   1     -13.254  12.684  25.843  1.00  0.00     0.084 A 
ATOM     16  C30 UNK A   1     -13.916  12.254  24.705  1.00  0.00     0.119 A 
ATOM     17  F31 UNK A   1     -13.518  12.685  23.488  1.00  0.00    -0.206 F 
ATOM     18  C32 UNK A   1     -14.987  11.384  24.815  1.00  0.00     0.049 A 
ENDBRANCH  10  11
BRANCH  10  19
ATOM     19  C33 UNK A   1     -16.419   9.170  27.460  1.00  0.00    -0.006 C 
ATOM     20  C34 UNK A   1     -16.214   7.698  27.098  1.00  0.00     0.006 C 
ATOM     21  C35 UNK A   1     -16.071   6.873  28.378  1.00  0.00     0.020 C 
ATOM     22  C36 UNK A   1     -17.339   7.018  29.222  1.00  0.00     0.108 C 
ATOM     23  C41 UNK A   1     -17.545   8.491  29.583  1.00  0.00     0.020 C 
ATOM     24  C42 UNK A   1     -17.687   9.316  28.303  1.00  0.00     0.006 C 
BRANCH  22  25
ATOM     25  S37 UNK A   1     -17.170   6.041  30.741  1.00  0.00     0.144 S 
ATOM     26  C38 UNK A   1     -16.884   4.374  30.084  1.00  0.00     0.161 C 
ATOM     27  O39 UNK A   1     -16.000   6.465  31.425  1.00  0.00    -0.228 OA
ATOM     28  O40 UNK A   1     -18.416   6.050  31.425  1.00  0.00    -0.228 OA
ENDBRANCH  22  25
ENDBRANCH  10  19
ENDBRANCH   9  10
ENDBRANCH   8   9
ENDBRANCH   4   8
BRANCH   1  29
ATOM     29  N3  UNK A   1     -19.882   4.872  24.402  1.00  0.00    -0.347 N 
ATOM     30  C4  UNK A   1     -20.615   4.134  23.544  1.00  0.00     0.224 C 
ATOM     31  O5  UNK A   1     -21.360   4.681  22.758  1.00  0.00    -0.273 OA
BRANCH  29  32
ATOM     32  C2  UNK A   1     -18.983   4.212  25.352  1.00  0.00     0.122 C 
ATOM     33  C1  UNK A   1     -17.533   4.529  24.985  1.00  0.00     0.026 C 
ENDBRANCH  29  32
BRANCH  30  34
ATOM     34  C6  UNK A   1     -20.511   2.631  23.564  1.00  0.00     0.141 C 
BRANCH  34  35
ATOM     35  C7  UNK A   1     -20.323   2.160  24.983  1.00  0.00    -0.049 A 
ATOM     36  C8  UNK A   1     -21.113   2.680  25.993  1.00  0.00     0.009 A 
ATOM     37  C9  UNK A   1     -20.945   2.243  27.294  1.00  0.00     0.024 A 
ATOM     38  C10 UNK A   1     -19.982   1.297  27.588  1.00  0.00     0.058 A 
ATOM     39  C15 UNK A   1     -19.190   0.782  26.579  1.00  0.00     0.024 A 
ATOM     40  C16 UNK A   1     -19.361   1.213  25.277  1.00  0.00     0.009 A 
BRANCH  38  41
ATOM     41  S11 UNK A   1     -19.763   0.746  29.247  1.00  0.00     0.171 S 
ATOM     42  C12 UNK A   1     -18.813   2.071  30.043  1.00  0.00     0.167 C 
ATOM     43  O13 UNK A   1     -21.082   0.694  29.774  1.00  0.00    -0.223 OA
ATOM     44  O14 UNK A   1     -18.976  -0.430  29.126  1.00  0.00    -0.223 OA
ENDBRANCH  38  41
ENDBRANCH  34  35
ENDBRANCH  30  34
ENDBRANCH   1  29
TORSDOF 11
ENDMDL
