REMARK  7 active torsions:
REMARK  status: ('A' for Active; 'I' for Inactive)
REMARK    1  A    between atoms: C2_2  and  N4_4 
REMARK    2  A    between atoms: N4_4  and  C5_5 
REMARK    3  A    between atoms: C5_5  and  C6_6 
REMARK    4  A    between atoms: C6_6  and  C8_7 
REMARK    5  A    between atoms: C6_6  and  C29_26 
REMARK       I    between atoms: C8_7  and  N10_9 
REMARK    6  A    between atoms: N13_12  and  C14_13 
REMARK    7  A    between atoms: C24_22  and  O26_23 
ROOT
ATOM      1  C8  UNK A   1     -21.320   0.064  26.225  1.00  0.00     0.230 C 
ATOM      2  O9  UNK A   1     -20.381   0.647  25.728  1.00  0.00    -0.273 OA
ATOM      3  N10 UNK A   1     -21.368  -1.282  26.198  1.00  0.00    -0.349 N 
ATOM      4  C11 UNK A   1     -20.242  -2.067  25.669  1.00  0.00     0.140 C 
ATOM      5  C12 UNK A   1     -19.865  -3.134  26.703  1.00  0.00     0.117 C 
ATOM      6  N13 UNK A   1     -21.057  -3.916  27.052  1.00  0.00    -0.264 NA
ATOM      7  C27 UNK A   1     -22.079  -3.075  27.689  1.00  0.00     0.117 C 
ATOM      8  C28 UNK A   1     -22.548  -2.007  26.696  1.00  0.00     0.140 C 
ENDROOT
BRANCH   1   9
ATOM      9  C6  UNK A   1     -22.434   0.844  26.874  1.00  0.00     0.136 C 
BRANCH   9  10
ATOM     10  C5  UNK A   1     -22.468   2.261  26.297  1.00  0.00     0.251 C 
BRANCH  10  11
ATOM     11  N4  UNK A   1     -22.809   2.201  24.869  1.00  0.00    -0.070 N 
ATOM     12  H43 UNK A   1     -22.184   1.582  24.374  1.00  0.00     0.277 HD
ATOM     13  HN2 UNK A   1     -23.744   1.827  24.789  1.00  0.00     0.277 HD
BRANCH  11  14
ATOM     14  C2  UNK A   1     -22.806   3.542  24.270  1.00  0.00     0.177 C 
ATOM     15  C1  UNK A   1     -21.381   3.908  23.847  1.00  0.00     0.039 C 
ATOM     16  C3  UNK A   1     -23.721   3.554  23.044  1.00  0.00     0.039 C 
ENDBRANCH  11  14
ENDBRANCH  10  11
ENDBRANCH   9  10
BRANCH   9  17
ATOM     17  C29 UNK A   1     -22.200   0.913  28.361  1.00  0.00    -0.043 A 
ATOM     18  C30 UNK A   1     -21.047   1.496  28.852  1.00  0.00     0.010 A 
ATOM     19  C31 UNK A   1     -20.834   1.565  30.216  1.00  0.00     0.024 A 
ATOM     20  C32 UNK A   1     -21.769   1.039  31.089  1.00  0.00     0.034 A 
ATOM     21 CL33 UNK A   1     -21.499   1.119  32.802  1.00  0.00    -0.084 Cl
ATOM     22  C34 UNK A   1     -22.920   0.451  30.597  1.00  0.00     0.024 A 
ATOM     23  C35 UNK A   1     -23.135   0.388  29.233  1.00  0.00     0.010 A 
ENDBRANCH   9  17
ENDBRANCH   1   9
BRANCH   6  24
ATOM     24  C14 UNK A   1     -20.727  -4.993  27.860  1.00  0.00     0.115 A 
ATOM     25  N15 UNK A   1     -20.250  -4.796  29.087  1.00  0.00    -0.229 NA
ATOM     26  C16 UNK A   1     -19.935  -5.818  29.855  1.00  0.00     0.235 A 
ATOM     27  N17 UNK A   1     -20.075  -7.064  29.450  1.00  0.00    -0.243 NA
ATOM     28  C18 UNK A   1     -20.543  -7.341  28.239  1.00  0.00     0.074 A 
ATOM     29  C19 UNK A   1     -20.886  -6.301  27.400  1.00  0.00     0.013 A 
ATOM     30  C24 UNK A   1     -20.794  -8.660  27.546  1.00  0.00     0.171 C 
ATOM     31  C20 UNK A   1     -21.392  -6.844  26.085  1.00  0.00     0.023 C 
ATOM     32  C22 UNK A   1     -22.645  -6.086  25.643  1.00  0.00     0.015 C 
ATOM     33  C23 UNK A   1     -21.728  -8.328  26.362  1.00  0.00     0.047 C 
BRANCH  30  34
ATOM     34  O26 UNK A   1     -19.565  -9.211  27.068  1.00  0.00    -0.389 OA
ATOM     35  H56 UNK A   1     -18.929  -9.420  27.766  1.00  0.00     0.210 HD
ENDBRANCH  30  34
ENDBRANCH   6  24
TORSDOF 7
