REMARK  2 active torsions:
REMARK  status: ('A' for Active; 'I' for Inactive)
REMARK    1  A    between atoms: O1_2  and  C14_19 
REMARK    2  A    between atoms: O1_2  and  C21_26 
REMARK       I    between atoms: N1_4  and  C14_19 
ROOT
ATOM      1 Cl1  UNK A   1      -3.176  -7.569  18.375  1.00  0.00    -0.084 Cl
ATOM      2  O2  UNK A   1      -8.317  -9.382  27.641  1.00  0.00    -0.238 OA
ATOM      3  N1  UNK A   1      -7.741  -8.814  25.589  1.00  0.00    -0.327 N 
ATOM      4  N2  UNK A   1      -8.688  -4.373  22.693  1.00  0.00    -0.260 NA
ATOM      5  C1  UNK A   1      -7.779  -7.152  23.261  1.00  0.00    -0.063 C 
ATOM      6  C2  UNK A   1      -8.735  -6.927  24.364  1.00  0.00     0.055 C 
ATOM      7  C3  UNK A   1      -7.500  -8.599  23.132  1.00  0.00     0.055 C 
ATOM      8  C4  UNK A   1      -7.170  -6.167  22.541  1.00  0.00     0.006 C 
ATOM      9  C5  UNK A   1      -8.136  -7.453  25.694  1.00  0.00     0.132 C 
ATOM     10  C6  UNK A   1      -6.928  -9.151  24.471  1.00  0.00     0.132 C 
ATOM     11  C7  UNK A   1      -6.214  -6.450  21.554  1.00  0.00    -0.017 A 
ATOM     12  C8  UNK A   1      -7.396  -4.801  22.769  1.00  0.00     0.074 A 
ATOM     13  C9  UNK A   1      -4.833  -6.164  21.746  1.00  0.00    -0.045 A 
ATOM     14  C10 UNK A   1      -4.357  -5.510  22.994  1.00  0.00     0.044 C 
ATOM     15  C11 UNK A   1      -4.927  -4.085  23.187  1.00  0.00     0.045 C 
ATOM     16  C12 UNK A   1      -6.395  -3.838  23.102  1.00  0.00    -0.028 A 
ATOM     17  C13 UNK A   1      -6.620  -7.064  20.342  1.00  0.00     0.014 A 
ATOM     18  C14 UNK A   1      -8.168  -9.701  26.464  1.00  0.00     0.362 C 
ATOM     19  C15 UNK A   1      -3.901  -6.515  20.741  1.00  0.00     0.031 A 
ATOM     20  C16 UNK A   1      -6.819  -2.515  23.384  1.00  0.00     0.011 A 
ATOM     21  C17 UNK A   1      -5.681  -7.415  19.355  1.00  0.00     0.024 A 
ATOM     22  C18 UNK A   1      -4.317  -7.144  19.552  1.00  0.00     0.034 A 
ATOM     23  C19 UNK A   1      -8.173  -2.148  23.341  1.00  0.00     0.020 A 
ATOM     24  C20 UNK A   1      -9.115  -3.118  22.972  1.00  0.00     0.117 A 
ENDROOT
BRANCH  18  25
ATOM     25  O1  UNK A   1      -8.460 -10.858  26.107  1.00  0.00    -0.304 OA
BRANCH  25  26
ATOM     26  C21 UNK A   1      -9.283 -11.758  26.662  1.00  0.00     0.176 C 
ATOM     27  C22 UNK A   1      -9.207 -13.117  25.948  1.00  0.00     0.034 C 
ENDBRANCH  25  26
ENDBRANCH  18  25
TORSDOF 2
