MODEL 1
REMARK VINA RESULT:      -9.3      0.000      0.000
REMARK  4 active torsions:
REMARK  status: ('A' for Active; 'I' for Inactive)
REMARK    1  A    between atoms: N1_1  and  C2_2 
REMARK    2  A    between atoms: C2_2  and  C3_3 
REMARK    3  A    between atoms: C6_6  and  C7_7 
REMARK    4  A    between atoms: C21_21  and  C22_22 
ROOT
ATOM      1  C7  UNK A   1     -18.813   4.291  27.184  1.00  0.00     0.079 A 
ATOM      2  N8  UNK A   1     -18.422   3.976  28.410  1.00  0.00    -0.246 NA
ATOM      3  C9  UNK A   1     -18.560   2.746  28.888  1.00  0.00     0.073 A 
ATOM      4  C10 UNK A   1     -18.124   2.401  30.245  1.00  0.00     0.050 A 
ATOM      5  C11 UNK A   1     -18.273   1.156  30.705  1.00  0.00     0.106 A 
ATOM      6  N12 UNK A   1     -18.833   0.146  29.952  1.00  0.00    -0.255 N 
ATOM      7  C13 UNK A   1     -19.062  -1.153  30.240  1.00  0.00     0.348 A 
ATOM      8  O14 UNK A   1     -18.804  -1.711  31.292  1.00  0.00    -0.245 OA
ATOM      9  N15 UNK A   1     -19.631  -1.723  29.160  1.00  0.00    -0.226 N 
ATOM     10  H16 UNK A   1     -19.907  -2.650  29.079  1.00  0.00     0.194 HD
ATOM     11  N17 UNK A   1     -19.752  -0.735  28.174  1.00  0.00    -0.151 NA
ATOM     12  C18 UNK A   1     -19.271   0.379  28.660  1.00  0.00     0.170 A 
ATOM     13  C19 UNK A   1     -19.137   1.730  28.090  1.00  0.00     0.042 A 
ATOM     14  C20 UNK A   1     -19.559   2.025  26.798  1.00  0.00     0.032 A 
ATOM     15  C21 UNK A   1     -19.400   3.332  26.338  1.00  0.00     0.005 A 
ENDROOT
BRANCH   1  16
ATOM     16  C6  UNK A   1     -18.637   5.679  26.698  1.00  0.00    -0.006 A 
ATOM     17  C5  UNK A   1     -17.400   6.098  26.207  1.00  0.00     0.014 A 
ATOM     18  C4  UNK A   1     -17.244   7.389  25.750  1.00  0.00     0.010 A 
ATOM     19  C3  UNK A   1     -18.307   8.274  25.789  1.00  0.00    -0.023 A 
ATOM     20  C29 UNK A   1     -19.537   7.866  26.277  1.00  0.00     0.010 A 
ATOM     21  C28 UNK A   1     -19.707   6.573  26.730  1.00  0.00     0.014 A 
BRANCH  19  22
ATOM     22  C2  UNK A   1     -18.127   9.686  25.295  1.00  0.00     0.150 C 
ATOM     23  C30 UNK A   1     -18.536   9.881  23.825  1.00  0.00     0.044 C 
ATOM     24  C31 UNK A   1     -19.143  11.229  24.258  1.00  0.00     0.005 C 
ATOM     25  C32 UNK A   1     -19.290  10.621  25.663  1.00  0.00     0.044 C 
BRANCH  22  26
ATOM     26  N1  UNK A   1     -16.803  10.238  25.615  1.00  0.00    -0.066 N 
ATOM     27  H33 UNK A   1     -16.883  11.164  26.009  1.00  0.00     0.275 HD
ATOM     28  H34 UNK A   1     -16.297   9.624  26.235  1.00  0.00     0.275 HD
ATOM     29  HN1 UNK A   1     -16.281  10.311  24.753  1.00  0.00     0.275 HD
ENDBRANCH  22  26
ENDBRANCH  19  22
ENDBRANCH   1  16
BRANCH  15  30
ATOM     30  C22 UNK A   1     -19.838   3.705  24.973  1.00  0.00    -0.024 A 
ATOM     31  C23 UNK A   1     -21.193   3.883  24.696  1.00  0.00     0.012 A 
ATOM     32  C24 UNK A   1     -21.593   4.235  23.423  1.00  0.00     0.001 A 
ATOM     33  C25 UNK A   1     -20.654   4.401  22.421  1.00  0.00     0.000 A 
ATOM     34  C26 UNK A   1     -19.310   4.220  22.688  1.00  0.00     0.001 A 
ATOM     35  C27 UNK A   1     -18.897   3.875  23.958  1.00  0.00     0.012 A 
ENDBRANCH  15  30
TORSDOF 4
ENDMDL
MODEL 2
REMARK VINA RESULT:      -8.7      3.215      8.327
REMARK  4 active torsions:
REMARK  status: ('A' for Active; 'I' for Inactive)
REMARK    1  A    between atoms: N1_1  and  C2_2 
REMARK    2  A    between atoms: C2_2  and  C3_3 
REMARK    3  A    between atoms: C6_6  and  C7_7 
REMARK    4  A    between atoms: C21_21  and  C22_22 
ROOT
ATOM      1  C7  UNK A   1     -18.626   5.839  26.250  1.00  0.00     0.079 A 
ATOM      2  N8  UNK A   1     -18.016   6.805  26.920  1.00  0.00    -0.246 NA
ATOM      3  C9  UNK A   1     -17.820   8.003  26.385  1.00  0.00     0.073 A 
ATOM      4  C10 UNK A   1     -17.145   9.071  27.131  1.00  0.00     0.050 A 
ATOM      5  C11 UNK A   1     -16.958  10.270  26.572  1.00  0.00     0.106 A 
ATOM      6  N12 UNK A   1     -17.375  10.567  25.293  1.00  0.00    -0.255 N 
ATOM      7  C13 UNK A   1     -17.277  11.704  24.569  1.00  0.00     0.348 A 
ATOM      8  O14 UNK A   1     -16.763  12.745  24.936  1.00  0.00    -0.245 OA
ATOM      9  N15 UNK A   1     -17.845  11.481  23.368  1.00  0.00    -0.226 N 
ATOM     10  H16 UNK A   1     -17.919  12.119  22.641  1.00  0.00     0.194 HD
ATOM     11  N17 UNK A   1     -18.309  10.158  23.358  1.00  0.00    -0.151 NA
ATOM     12  C18 UNK A   1     -18.022   9.623  24.515  1.00  0.00     0.170 A 
ATOM     13  C19 UNK A   1     -18.261   8.280  25.070  1.00  0.00     0.042 A 
ATOM     14  C20 UNK A   1     -18.905   7.289  24.336  1.00  0.00     0.032 A 
ATOM     15  C21 UNK A   1     -19.086   6.043  24.935  1.00  0.00     0.005 A 
ENDROOT
BRANCH   1  16
ATOM     16  C6  UNK A   1     -18.822   4.519  26.892  1.00  0.00    -0.006 A 
ATOM     17  C5  UNK A   1     -19.939   4.288  27.695  1.00  0.00     0.014 A 
ATOM     18  C4  UNK A   1     -20.118   3.056  28.286  1.00  0.00     0.010 A 
ATOM     19  C3  UNK A   1     -19.187   2.050  28.094  1.00  0.00    -0.023 A 
ATOM     20  C29 UNK A   1     -18.075   2.273  27.299  1.00  0.00     0.010 A 
ATOM     21  C28 UNK A   1     -17.889   3.501  26.697  1.00  0.00     0.014 A 
BRANCH  19  22
ATOM     22  C2  UNK A   1     -19.386   0.708  28.748  1.00  0.00     0.150 C 
ATOM     23  C30 UNK A   1     -18.394   0.424  29.888  1.00  0.00     0.044 C 
ATOM     24  C31 UNK A   1     -19.575  -0.205  30.650  1.00  0.00     0.005 C 
ATOM     25  C32 UNK A   1     -20.494   0.699  29.813  1.00  0.00     0.044 C 
BRANCH  22  26
ATOM     26  N1  UNK A   1     -19.495  -0.389  27.776  1.00  0.00    -0.066 N 
ATOM     27  H33 UNK A   1     -19.619  -1.275  28.243  1.00  0.00     0.275 HD
ATOM     28  H34 UNK A   1     -20.242  -0.218  27.121  1.00  0.00     0.275 HD
ATOM     29  HN1 UNK A   1     -18.629  -0.430  27.257  1.00  0.00     0.275 HD
ENDBRANCH  22  26
ENDBRANCH  19  22
ENDBRANCH   1  16
BRANCH  15  30
ATOM     30  C22 UNK A   1     -19.760   4.947  24.199  1.00  0.00    -0.024 A 
ATOM     31  C23 UNK A   1     -19.237   4.492  22.990  1.00  0.00     0.012 A 
ATOM     32  C24 UNK A   1     -19.867   3.468  22.312  1.00  0.00     0.001 A 
ATOM     33  C25 UNK A   1     -21.020   2.902  22.825  1.00  0.00     0.000 A 
ATOM     34  C26 UNK A   1     -21.547   3.354  24.021  1.00  0.00     0.001 A 
ATOM     35  C27 UNK A   1     -20.922   4.372  24.711  1.00  0.00     0.012 A 
ENDBRANCH  15  30
TORSDOF 4
ENDMDL
MODEL 3
REMARK VINA RESULT:      -8.3      4.348      7.310
REMARK  4 active torsions:
REMARK  status: ('A' for Active; 'I' for Inactive)
REMARK    1  A    between atoms: N1_1  and  C2_2 
REMARK    2  A    between atoms: C2_2  and  C3_3 
REMARK    3  A    between atoms: C6_6  and  C7_7 
REMARK    4  A    between atoms: C21_21  and  C22_22 
ROOT
ATOM      1  C7  UNK A   1     -16.907   6.198  26.443  1.00  0.00     0.079 A 
ATOM      2  N8  UNK A   1     -16.163   7.253  26.146  1.00  0.00    -0.246 NA
ATOM      3  C9  UNK A   1     -15.304   7.763  27.018  1.00  0.00     0.073 A 
ATOM      4  C10 UNK A   1     -14.481   8.931  26.685  1.00  0.00     0.050 A 
ATOM      5  C11 UNK A   1     -13.622   9.428  27.580  1.00  0.00     0.106 A 
ATOM      6  N12 UNK A   1     -13.463   8.889  28.838  1.00  0.00    -0.255 N 
ATOM      7  C13 UNK A   1     -12.659   9.248  29.862  1.00  0.00     0.348 A 
ATOM      8  O14 UNK A   1     -11.874  10.179  29.865  1.00  0.00    -0.245 OA
ATOM      9  N15 UNK A   1     -12.880   8.395  30.881  1.00  0.00    -0.226 N 
ATOM     10  H16 UNK A   1     -12.443   8.411  31.747  1.00  0.00     0.194 HD
ATOM     11  N17 UNK A   1     -13.855   7.480  30.463  1.00  0.00    -0.151 NA
ATOM     12  C18 UNK A   1     -14.197   7.786  29.240  1.00  0.00     0.170 A 
ATOM     13  C19 UNK A   1     -15.161   7.188  28.303  1.00  0.00     0.042 A 
ATOM     14  C20 UNK A   1     -15.927   6.079  28.649  1.00  0.00     0.032 A 
ATOM     15  C21 UNK A   1     -16.821   5.578  27.704  1.00  0.00     0.005 A 
ENDROOT
BRANCH   1  16
ATOM     16  C6  UNK A   1     -17.851   5.666  25.434  1.00  0.00    -0.006 A 
ATOM     17  C5  UNK A   1     -17.733   4.348  24.989  1.00  0.00     0.014 A 
ATOM     18  C4  UNK A   1     -18.619   3.857  24.053  1.00  0.00     0.010 A 
ATOM     19  C3  UNK A   1     -19.616   4.671  23.545  1.00  0.00    -0.023 A 
ATOM     20  C29 UNK A   1     -19.738   5.979  23.981  1.00  0.00     0.010 A 
ATOM     21  C28 UNK A   1     -18.861   6.480  24.923  1.00  0.00     0.014 A 
BRANCH  19  22
ATOM     22  C2  UNK A   1     -20.576   4.129  22.518  1.00  0.00     0.150 C 
ATOM     23  C30 UNK A   1     -19.930   3.868  21.148  1.00  0.00     0.044 C 
ATOM     24  C31 UNK A   1     -20.780   2.585  21.082  1.00  0.00     0.005 C 
ATOM     25  C32 UNK A   1     -20.795   2.611  22.619  1.00  0.00     0.044 C 
BRANCH  22  26
ATOM     26  N1  UNK A   1     -21.825   4.900  22.442  1.00  0.00    -0.066 N 
ATOM     27  H33 UNK A   1     -21.975   5.255  21.509  1.00  0.00     0.275 HD
ATOM     28  H34 UNK A   1     -22.610   4.347  22.749  1.00  0.00     0.275 HD
ATOM     29  HN1 UNK A   1     -21.739   5.692  23.064  1.00  0.00     0.275 HD
ENDBRANCH  22  26
ENDBRANCH  19  22
ENDBRANCH   1  16
BRANCH  15  30
ATOM     30  C22 UNK A   1     -17.667   4.403  28.019  1.00  0.00    -0.024 A 
ATOM     31  C23 UNK A   1     -19.042   4.557  28.192  1.00  0.00     0.012 A 
ATOM     32  C24 UNK A   1     -19.825   3.458  28.482  1.00  0.00     0.001 A 
ATOM     33  C25 UNK A   1     -19.246   2.208  28.611  1.00  0.00     0.000 A 
ATOM     34  C26 UNK A   1     -17.882   2.050  28.446  1.00  0.00     0.001 A 
ATOM     35  C27 UNK A   1     -17.090   3.141  28.150  1.00  0.00     0.012 A 
ENDBRANCH  15  30
TORSDOF 4
ENDMDL
MODEL 4
REMARK VINA RESULT:      -8.2      3.625      5.811
REMARK  4 active torsions:
REMARK  status: ('A' for Active; 'I' for Inactive)
REMARK    1  A    between atoms: N1_1  and  C2_2 
REMARK    2  A    between atoms: C2_2  and  C3_3 
REMARK    3  A    between atoms: C6_6  and  C7_7 
REMARK    4  A    between atoms: C21_21  and  C22_22 
ROOT
ATOM      1  C7  UNK A   1     -18.212   7.152  24.844  1.00  0.00     0.079 A 
ATOM      2  N8  UNK A   1     -19.090   6.851  23.899  1.00  0.00    -0.246 NA
ATOM      3  C9  UNK A   1     -19.594   5.629  23.785  1.00  0.00     0.073 A 
ATOM      4  C10 UNK A   1     -20.567   5.300  22.738  1.00  0.00     0.050 A 
ATOM      5  C11 UNK A   1     -21.061   4.062  22.642  1.00  0.00     0.106 A 
ATOM      6  N12 UNK A   1     -20.695   3.046  23.498  1.00  0.00    -0.255 N 
ATOM      7  C13 UNK A   1     -21.080   1.752  23.557  1.00  0.00     0.348 A 
ATOM      8  O14 UNK A   1     -21.874   1.206  22.812  1.00  0.00    -0.245 OA
ATOM      9  N15 UNK A   1     -20.429   1.172  24.583  1.00  0.00    -0.226 N 
ATOM     10  H16 UNK A   1     -20.508   0.246  24.863  1.00  0.00     0.194 HD
ATOM     11  N17 UNK A   1     -19.616   2.148  25.175  1.00  0.00    -0.151 NA
ATOM     12  C18 UNK A   1     -19.784   3.265  24.517  1.00  0.00     0.170 A 
ATOM     13  C19 UNK A   1     -19.200   4.606  24.679  1.00  0.00     0.042 A 
ATOM     14  C20 UNK A   1     -18.280   4.887  25.684  1.00  0.00     0.032 A 
ATOM     15  C21 UNK A   1     -17.771   6.183  25.765  1.00  0.00     0.005 A 
ENDROOT
BRANCH   1  16
ATOM     16  C6  UNK A   1     -17.680   8.531  24.929  1.00  0.00    -0.006 A 
ATOM     17  C5  UNK A   1     -18.159   9.409  25.902  1.00  0.00     0.014 A 
ATOM     18  C4  UNK A   1     -17.655  10.691  25.980  1.00  0.00     0.010 A 
ATOM     19  C3  UNK A   1     -16.684  11.111  25.088  1.00  0.00    -0.023 A 
ATOM     20  C29 UNK A   1     -16.205  10.246  24.120  1.00  0.00     0.010 A 
ATOM     21  C28 UNK A   1     -16.697   8.958  24.037  1.00  0.00     0.014 A 
BRANCH  19  22
ATOM     22  C2  UNK A   1     -16.143  12.515  25.175  1.00  0.00     0.150 C 
ATOM     23  C30 UNK A   1     -15.347  12.790  26.462  1.00  0.00     0.044 C 
ATOM     24  C31 UNK A   1     -14.365  13.590  25.586  1.00  0.00     0.005 C 
ATOM     25  C32 UNK A   1     -14.826  12.716  24.408  1.00  0.00     0.044 C 
BRANCH  22  26
ATOM     26  N1  UNK A   1     -17.157  13.536  24.881  1.00  0.00    -0.066 N 
ATOM     27  H33 UNK A   1     -17.903  13.154  24.317  1.00  0.00     0.275 HD
ATOM     28  H34 UNK A   1     -17.518  13.942  25.730  1.00  0.00     0.275 HD
ATOM     29  HN1 UNK A   1     -16.712  14.271  24.349  1.00  0.00     0.275 HD
ENDBRANCH  22  26
ENDBRANCH  19  22
ENDBRANCH   1  16
BRANCH  15  30
ATOM     30  C22 UNK A   1     -16.783   6.538  26.810  1.00  0.00    -0.024 A 
ATOM     31  C23 UNK A   1     -15.469   6.842  26.457  1.00  0.00     0.012 A 
ATOM     32  C24 UNK A   1     -14.555   7.176  27.435  1.00  0.00     0.001 A 
ATOM     33  C25 UNK A   1     -14.938   7.199  28.764  1.00  0.00     0.000 A 
ATOM     34  C26 UNK A   1     -16.238   6.893  29.121  1.00  0.00     0.001 A 
ATOM     35  C27 UNK A   1     -17.162   6.564  28.151  1.00  0.00     0.012 A 
ENDBRANCH  15  30
TORSDOF 4
ENDMDL
MODEL 5
REMARK VINA RESULT:      -8.2      3.334      8.245
REMARK  4 active torsions:
REMARK  status: ('A' for Active; 'I' for Inactive)
REMARK    1  A    between atoms: N1_1  and  C2_2 
REMARK    2  A    between atoms: C2_2  and  C3_3 
REMARK    3  A    between atoms: C6_6  and  C7_7 
REMARK    4  A    between atoms: C21_21  and  C22_22 
ROOT
ATOM      1  C7  UNK A   1     -17.295   5.386  26.746  1.00  0.00     0.079 A 
ATOM      2  N8  UNK A   1     -16.273   6.007  27.317  1.00  0.00    -0.246 NA
ATOM      3  C9  UNK A   1     -15.758   7.115  26.800  1.00  0.00     0.073 A 
ATOM      4  C10 UNK A   1     -14.628   7.800  27.436  1.00  0.00     0.050 A 
ATOM      5  C11 UNK A   1     -14.126   8.915  26.898  1.00  0.00     0.106 A 
ATOM      6  N12 UNK A   1     -14.626   9.474  25.741  1.00  0.00    -0.255 N 
ATOM      7  C13 UNK A   1     -14.257  10.579  25.057  1.00  0.00     0.348 A 
ATOM      8  O14 UNK A   1     -13.349  11.335  25.354  1.00  0.00    -0.245 OA
ATOM      9  N15 UNK A   1     -15.067  10.694  23.988  1.00  0.00    -0.226 N 
ATOM     10  H16 UNK A   1     -15.034  11.394  23.316  1.00  0.00     0.194 HD
ATOM     11  N17 UNK A   1     -15.967   9.620  24.020  1.00  0.00    -0.151 NA
ATOM     12  C18 UNK A   1     -15.692   8.897  25.073  1.00  0.00     0.170 A 
ATOM     13  C19 UNK A   1     -16.294   7.667  25.612  1.00  0.00     0.042 A 
ATOM     14  C20 UNK A   1     -17.367   7.041  24.986  1.00  0.00     0.032 A 
ATOM     15  C21 UNK A   1     -17.873   5.876  25.560  1.00  0.00     0.005 A 
ENDROOT
BRANCH   1  16
ATOM     16  C6  UNK A   1     -17.833   4.153  27.363  1.00  0.00    -0.006 A 
ATOM     17  C5  UNK A   1     -18.611   4.228  28.518  1.00  0.00     0.014 A 
ATOM     18  C4  UNK A   1     -19.114   3.075  29.084  1.00  0.00     0.010 A 
ATOM     19  C3  UNK A   1     -18.839   1.844  28.516  1.00  0.00    -0.023 A 
ATOM     20  C29 UNK A   1     -18.067   1.762  27.371  1.00  0.00     0.010 A 
ATOM     21  C28 UNK A   1     -17.563   2.909  26.791  1.00  0.00     0.014 A 
BRANCH  19  22
ATOM     22  C2  UNK A   1     -19.387   0.589  29.144  1.00  0.00     0.150 C 
ATOM     23  C30 UNK A   1     -18.656   0.174  30.432  1.00  0.00     0.044 C 
ATOM     24  C31 UNK A   1     -20.039  -0.195  31.001  1.00  0.00     0.005 C 
ATOM     25  C32 UNK A   1     -20.629   0.828  30.017  1.00  0.00     0.044 C 
BRANCH  22  26
ATOM     26  N1  UNK A   1     -19.547  -0.508  28.180  1.00  0.00    -0.066 N 
ATOM     27  H33 UNK A   1     -19.701  -1.387  28.653  1.00  0.00     0.275 HD
ATOM     28  H34 UNK A   1     -20.292  -0.312  27.530  1.00  0.00     0.275 HD
ATOM     29  HN1 UNK A   1     -18.687  -0.586  27.653  1.00  0.00     0.275 HD
ENDBRANCH  22  26
ENDBRANCH  19  22
ENDBRANCH   1  16
BRANCH  15  30
ATOM     30  C22 UNK A   1     -19.011   5.163  24.933  1.00  0.00    -0.024 A 
ATOM     31  C23 UNK A   1     -18.829   4.467  23.739  1.00  0.00     0.012 A 
ATOM     32  C24 UNK A   1     -19.892   3.802  23.163  1.00  0.00     0.001 A 
ATOM     33  C25 UNK A   1     -21.138   3.834  23.762  1.00  0.00     0.000 A 
ATOM     34  C26 UNK A   1     -21.327   4.528  24.943  1.00  0.00     0.001 A 
ATOM     35  C27 UNK A   1     -20.270   5.192  25.532  1.00  0.00     0.012 A 
ENDBRANCH  15  30
TORSDOF 4
ENDMDL
MODEL 6
REMARK VINA RESULT:      -8.2      1.728      2.254
REMARK  4 active torsions:
REMARK  status: ('A' for Active; 'I' for Inactive)
REMARK    1  A    between atoms: N1_1  and  C2_2 
REMARK    2  A    between atoms: C2_2  and  C3_3 
REMARK    3  A    between atoms: C6_6  and  C7_7 
REMARK    4  A    between atoms: C21_21  and  C22_22 
ROOT
ATOM      1  C7  UNK A   1     -18.550   5.657  26.522  1.00  0.00     0.079 A 
ATOM      2  N8  UNK A   1     -18.271   5.551  27.813  1.00  0.00    -0.246 NA
ATOM      3  C9  UNK A   1     -18.673   4.508  28.526  1.00  0.00     0.073 A 
ATOM      4  C10 UNK A   1     -18.361   4.394  29.955  1.00  0.00     0.050 A 
ATOM      5  C11 UNK A   1     -18.776   3.333  30.653  1.00  0.00     0.106 A 
ATOM      6  N12 UNK A   1     -19.505   2.309  30.089  1.00  0.00    -0.255 N 
ATOM      7  C13 UNK A   1     -20.005   1.174  30.625  1.00  0.00     0.348 A 
ATOM      8  O14 UNK A   1     -19.900   0.824  31.786  1.00  0.00    -0.245 OA
ATOM      9  N15 UNK A   1     -20.643   0.500  29.648  1.00  0.00    -0.226 N 
ATOM     10  H16 UNK A   1     -21.100  -0.350  29.743  1.00  0.00     0.194 HD
ATOM     11  N17 UNK A   1     -20.527   1.251  28.470  1.00  0.00    -0.151 NA
ATOM     12  C18 UNK A   1     -19.845   2.331  28.747  1.00  0.00     0.170 A 
ATOM     13  C19 UNK A   1     -19.419   3.471  27.919  1.00  0.00     0.042 A 
ATOM     14  C20 UNK A   1     -19.730   3.549  26.565  1.00  0.00     0.032 A 
ATOM     15  C21 UNK A   1     -19.293   4.666  25.854  1.00  0.00     0.005 A 
ENDROOT
BRANCH   1  16
ATOM     16  C6  UNK A   1     -18.078   6.842  25.771  1.00  0.00    -0.006 A 
ATOM     17  C5  UNK A   1     -18.943   7.910  25.529  1.00  0.00     0.014 A 
ATOM     18  C4  UNK A   1     -18.495   9.013  24.833  1.00  0.00     0.010 A 
ATOM     19  C3  UNK A   1     -17.194   9.059  24.365  1.00  0.00    -0.023 A 
ATOM     20  C29 UNK A   1     -16.330   8.004  24.601  1.00  0.00     0.010 A 
ATOM     21  C28 UNK A   1     -16.765   6.897  25.302  1.00  0.00     0.014 A 
BRANCH  19  22
ATOM     22  C2  UNK A   1     -16.714  10.266  23.600  1.00  0.00     0.150 C 
ATOM     23  C30 UNK A   1     -17.707  11.440  23.616  1.00  0.00     0.044 C 
ATOM     24  C31 UNK A   1     -16.485  12.364  23.776  1.00  0.00     0.005 C 
ATOM     25  C32 UNK A   1     -15.757  11.163  24.402  1.00  0.00     0.044 C 
BRANCH  22  26
ATOM     26  N1  UNK A   1     -16.220   9.930  22.258  1.00  0.00    -0.066 N 
ATOM     27  H33 UNK A   1     -16.624  10.539  21.561  1.00  0.00     0.275 HD
ATOM     28  H34 UNK A   1     -15.213   9.961  22.225  1.00  0.00     0.275 HD
ATOM     29  HN1 UNK A   1     -16.510   8.985  22.048  1.00  0.00     0.275 HD
ENDBRANCH  22  26
ENDBRANCH  19  22
ENDBRANCH   1  16
BRANCH  15  30
ATOM     30  C22 UNK A   1     -19.600   4.806  24.412  1.00  0.00    -0.024 A 
ATOM     31  C23 UNK A   1     -20.352   5.889  23.958  1.00  0.00     0.012 A 
ATOM     32  C24 UNK A   1     -20.631   6.016  22.613  1.00  0.00     0.001 A 
ATOM     33  C25 UNK A   1     -20.176   5.066  21.717  1.00  0.00     0.000 A 
ATOM     34  C26 UNK A   1     -19.436   3.986  22.162  1.00  0.00     0.001 A 
ATOM     35  C27 UNK A   1     -19.145   3.852  23.504  1.00  0.00     0.012 A 
ENDBRANCH  15  30
TORSDOF 4
ENDMDL
MODEL 7
REMARK VINA RESULT:      -8.0      2.157      4.515
REMARK  4 active torsions:
REMARK  status: ('A' for Active; 'I' for Inactive)
REMARK    1  A    between atoms: N1_1  and  C2_2 
REMARK    2  A    between atoms: C2_2  and  C3_3 
REMARK    3  A    between atoms: C6_6  and  C7_7 
REMARK    4  A    between atoms: C21_21  and  C22_22 
ROOT
ATOM      1  C7  UNK A   1     -18.530   6.572  26.308  1.00  0.00     0.079 A 
ATOM      2  N8  UNK A   1     -19.469   5.678  26.036  1.00  0.00    -0.246 NA
ATOM      3  C9  UNK A   1     -19.431   4.454  26.544  1.00  0.00     0.073 A 
ATOM      4  C10 UNK A   1     -20.474   3.469  26.241  1.00  0.00     0.050 A 
ATOM      5  C11 UNK A   1     -20.415   2.241  26.765  1.00  0.00     0.106 A 
ATOM      6  N12 UNK A   1     -19.396   1.836  27.600  1.00  0.00    -0.255 N 
ATOM      7  C13 UNK A   1     -19.169   0.656  28.217  1.00  0.00     0.348 A 
ATOM      8  O14 UNK A   1     -19.869  -0.338  28.142  1.00  0.00    -0.245 OA
ATOM      9  N15 UNK A   1     -18.031   0.772  28.927  1.00  0.00    -0.226 N 
ATOM     10  H16 UNK A   1     -17.621   0.080  29.471  1.00  0.00     0.194 HD
ATOM     11  N17 UNK A   1     -17.544   2.072  28.739  1.00  0.00    -0.151 NA
ATOM     12  C18 UNK A   1     -18.369   2.699  27.943  1.00  0.00     0.170 A 
ATOM     13  C19 UNK A   1     -18.373   4.068  27.400  1.00  0.00     0.042 A 
ATOM     14  C20 UNK A   1     -17.369   4.980  27.708  1.00  0.00     0.032 A 
ATOM     15  C21 UNK A   1     -17.445   6.254  27.147  1.00  0.00     0.005 A 
ENDROOT
BRANCH   1  16
ATOM     16  C6  UNK A   1     -18.618   7.925  25.715  1.00  0.00    -0.006 A 
ATOM     17  C5  UNK A   1     -18.096   8.170  24.444  1.00  0.00     0.014 A 
ATOM     18  C4  UNK A   1     -18.187   9.431  23.895  1.00  0.00     0.010 A 
ATOM     19  C3  UNK A   1     -18.785  10.458  24.606  1.00  0.00    -0.023 A 
ATOM     20  C29 UNK A   1     -19.304  10.222  25.867  1.00  0.00     0.010 A 
ATOM     21  C28 UNK A   1     -19.225   8.962  26.425  1.00  0.00     0.014 A 
BRANCH  19  22
ATOM     22  C2  UNK A   1     -18.875  11.835  24.001  1.00  0.00     0.150 C 
ATOM     23  C30 UNK A   1     -18.345  12.947  24.921  1.00  0.00     0.044 C 
ATOM     24  C31 UNK A   1     -17.726  13.582  23.662  1.00  0.00     0.005 C 
ATOM     25  C32 UNK A   1     -17.712  12.170  23.054  1.00  0.00     0.044 C 
BRANCH  22  26
ATOM     26  N1  UNK A   1     -20.199  12.123  23.433  1.00  0.00    -0.066 N 
ATOM     27  H33 UNK A   1     -20.855  12.382  24.155  1.00  0.00     0.275 HD
ATOM     28  H34 UNK A   1     -20.140  12.838  22.725  1.00  0.00     0.275 HD
ATOM     29  HN1 UNK A   1     -20.538  11.278  22.994  1.00  0.00     0.275 HD
ENDBRANCH  22  26
ENDBRANCH  19  22
ENDBRANCH   1  16
BRANCH  15  30
ATOM     30  C22 UNK A   1     -16.400   7.265  27.434  1.00  0.00    -0.024 A 
ATOM     31  C23 UNK A   1     -15.296   7.389  26.592  1.00  0.00     0.012 A 
ATOM     32  C24 UNK A   1     -14.329   8.335  26.863  1.00  0.00     0.001 A 
ATOM     33  C25 UNK A   1     -14.448   9.151  27.973  1.00  0.00     0.000 A 
ATOM     34  C26 UNK A   1     -15.538   9.029  28.816  1.00  0.00     0.001 A 
ATOM     35  C27 UNK A   1     -16.514   8.090  28.552  1.00  0.00     0.012 A 
ENDBRANCH  15  30
TORSDOF 4
ENDMDL
MODEL 8
REMARK VINA RESULT:      -7.9      3.806      5.979
REMARK  4 active torsions:
REMARK  status: ('A' for Active; 'I' for Inactive)
REMARK    1  A    between atoms: N1_1  and  C2_2 
REMARK    2  A    between atoms: C2_2  and  C3_3 
REMARK    3  A    between atoms: C6_6  and  C7_7 
REMARK    4  A    between atoms: C21_21  and  C22_22 
ROOT
ATOM      1  C7  UNK A   1     -17.568   6.775  25.897  1.00  0.00     0.079 A 
ATOM      2  N8  UNK A   1     -17.716   5.500  26.222  1.00  0.00    -0.246 NA
ATOM      3  C9  UNK A   1     -18.522   4.698  25.538  1.00  0.00     0.073 A 
ATOM      4  C10 UNK A   1     -18.682   3.286  25.901  1.00  0.00     0.050 A 
ATOM      5  C11 UNK A   1     -19.499   2.497  25.198  1.00  0.00     0.106 A 
ATOM      6  N12 UNK A   1     -20.224   2.952  24.117  1.00  0.00    -0.255 N 
ATOM      7  C13 UNK A   1     -21.087   2.315  23.296  1.00  0.00     0.348 A 
ATOM      8  O14 UNK A   1     -21.410   1.142  23.365  1.00  0.00    -0.245 OA
ATOM      9  N15 UNK A   1     -21.531   3.206  22.389  1.00  0.00    -0.226 N 
ATOM     10  H16 UNK A   1     -22.163   3.030  21.674  1.00  0.00     0.194 HD
ATOM     11  N17 UNK A   1     -20.915   4.434  22.665  1.00  0.00    -0.151 NA
ATOM     12  C18 UNK A   1     -20.136   4.269  23.701  1.00  0.00     0.170 A 
ATOM     13  C19 UNK A   1     -19.253   5.193  24.432  1.00  0.00     0.042 A 
ATOM     14  C20 UNK A   1     -19.122   6.527  24.062  1.00  0.00     0.032 A 
ATOM     15  C21 UNK A   1     -18.268   7.336  24.812  1.00  0.00     0.005 A 
ENDROOT
BRANCH   1  16
ATOM     16  C6  UNK A   1     -16.656   7.628  26.692  1.00  0.00    -0.006 A 
ATOM     17  C5  UNK A   1     -17.151   8.382  27.756  1.00  0.00     0.014 A 
ATOM     18  C4  UNK A   1     -16.295   9.170  28.497  1.00  0.00     0.010 A 
ATOM     19  C3  UNK A   1     -14.949   9.223  28.180  1.00  0.00    -0.023 A 
ATOM     20  C29 UNK A   1     -14.451   8.478  27.125  1.00  0.00     0.010 A 
ATOM     21  C28 UNK A   1     -15.298   7.681  26.380  1.00  0.00     0.014 A 
BRANCH  19  22
ATOM     22  C2  UNK A   1     -14.021  10.091  28.990  1.00  0.00     0.150 C 
ATOM     23  C30 UNK A   1     -12.679   9.419  29.319  1.00  0.00     0.044 C 
ATOM     24  C31 UNK A   1     -12.021  10.785  29.050  1.00  0.00     0.005 C 
ATOM     25  C32 UNK A   1     -13.224  11.097  28.144  1.00  0.00     0.044 C 
BRANCH  22  26
ATOM     26  N1  UNK A   1     -14.679  10.695  30.157  1.00  0.00    -0.066 N 
ATOM     27  H33 UNK A   1     -14.098  10.620  30.979  1.00  0.00     0.275 HD
ATOM     28  H34 UNK A   1     -14.927  11.655  29.976  1.00  0.00     0.275 HD
ATOM     29  HN1 UNK A   1     -15.532  10.181  30.332  1.00  0.00     0.275 HD
ENDBRANCH  22  26
ENDBRANCH  19  22
ENDBRANCH   1  16
BRANCH  15  30
ATOM     30  C22 UNK A   1     -18.095   8.766  24.468  1.00  0.00    -0.024 A 
ATOM     31  C23 UNK A   1     -18.976   9.720  24.975  1.00  0.00     0.012 A 
ATOM     32  C24 UNK A   1     -18.806  11.051  24.654  1.00  0.00     0.001 A 
ATOM     33  C25 UNK A   1     -17.771  11.438  23.823  1.00  0.00     0.000 A 
ATOM     34  C26 UNK A   1     -16.897  10.496  23.312  1.00  0.00     0.001 A 
ATOM     35  C27 UNK A   1     -17.053   9.163  23.631  1.00  0.00     0.012 A 
ENDBRANCH  15  30
TORSDOF 4
ENDMDL
MODEL 9
REMARK VINA RESULT:      -7.8      4.312      6.692
REMARK  4 active torsions:
REMARK  status: ('A' for Active; 'I' for Inactive)
REMARK    1  A    between atoms: N1_1  and  C2_2 
REMARK    2  A    between atoms: C2_2  and  C3_3 
REMARK    3  A    between atoms: C6_6  and  C7_7 
REMARK    4  A    between atoms: C21_21  and  C22_22 
ROOT
ATOM      1  C7  UNK A   1     -16.621   6.312  26.637  1.00  0.00     0.079 A 
ATOM      2  N8  UNK A   1     -17.059   5.074  26.814  1.00  0.00    -0.246 NA
ATOM      3  C9  UNK A   1     -18.035   4.571  26.070  1.00  0.00     0.073 A 
ATOM      4  C10 UNK A   1     -18.516   3.200  26.268  1.00  0.00     0.050 A 
ATOM      5  C11 UNK A   1     -19.502   2.714  25.508  1.00  0.00     0.106 A 
ATOM      6  N12 UNK A   1     -20.111   3.454  24.517  1.00  0.00    -0.255 N 
ATOM      7  C13 UNK A   1     -21.106   3.140  23.660  1.00  0.00     0.348 A 
ATOM      8  O14 UNK A   1     -21.692   2.074  23.601  1.00  0.00    -0.245 OA
ATOM      9  N15 UNK A   1     -21.338   4.215  22.882  1.00  0.00    -0.226 N 
ATOM     10  H16 UNK A   1     -22.000   4.280  22.176  1.00  0.00     0.194 HD
ATOM     11  N17 UNK A   1     -20.450   5.224  23.279  1.00  0.00    -0.151 NA
ATOM     12  C18 UNK A   1     -19.721   4.757  24.258  1.00  0.00     0.170 A 
ATOM     13  C19 UNK A   1     -18.641   5.354  25.059  1.00  0.00     0.042 A 
ATOM     14  C20 UNK A   1     -18.206   6.658  24.846  1.00  0.00     0.032 A 
ATOM     15  C21 UNK A   1     -17.181   7.149  25.653  1.00  0.00     0.005 A 
ENDROOT
BRANCH   1  16
ATOM     16  C6  UNK A   1     -15.527   6.826  27.493  1.00  0.00    -0.006 A 
ATOM     17  C5  UNK A   1     -14.255   7.030  26.959  1.00  0.00     0.014 A 
ATOM     18  C4  UNK A   1     -13.243   7.514  27.760  1.00  0.00     0.010 A 
ATOM     19  C3  UNK A   1     -13.483   7.788  29.095  1.00  0.00    -0.023 A 
ATOM     20  C29 UNK A   1     -14.743   7.587  29.632  1.00  0.00     0.010 A 
ATOM     21  C28 UNK A   1     -15.766   7.109  28.838  1.00  0.00     0.014 A 
BRANCH  19  22
ATOM     22  C2  UNK A   1     -12.370   8.311  29.966  1.00  0.00     0.150 C 
ATOM     23  C30 UNK A   1     -12.265   7.600  31.325  1.00  0.00     0.044 C 
ATOM     24  C31 UNK A   1     -10.737   7.662  31.148  1.00  0.00     0.005 C 
ATOM     25  C32 UNK A   1     -10.994   7.713  29.633  1.00  0.00     0.044 C 
BRANCH  22  26
ATOM     26  N1  UNK A   1     -12.366   9.777  30.066  1.00  0.00    -0.066 N 
ATOM     27  H33 UNK A   1     -12.484  10.074  31.023  1.00  0.00     0.275 HD
ATOM     28  H34 UNK A   1     -11.524  10.164  29.669  1.00  0.00     0.275 HD
ATOM     29  HN1 UNK A   1     -13.151  10.126  29.533  1.00  0.00     0.275 HD
ENDBRANCH  22  26
ENDBRANCH  19  22
ENDBRANCH   1  16
BRANCH  15  30
ATOM     30  C22 UNK A   1     -16.682   8.533  25.476  1.00  0.00    -0.024 A 
ATOM     31  C23 UNK A   1     -17.035   9.526  26.387  1.00  0.00     0.012 A 
ATOM     32  C24 UNK A   1     -16.564  10.812  26.218  1.00  0.00     0.001 A 
ATOM     33  C25 UNK A   1     -15.751  11.117  25.142  1.00  0.00     0.000 A 
ATOM     34  C26 UNK A   1     -15.402  10.137  24.231  1.00  0.00     0.001 A 
ATOM     35  C27 UNK A   1     -15.862   8.847  24.393  1.00  0.00     0.012 A 
ENDBRANCH  15  30
TORSDOF 4
ENDMDL
MODEL 10
REMARK VINA RESULT:      -7.6      2.325      4.350
REMARK  4 active torsions:
REMARK  status: ('A' for Active; 'I' for Inactive)
REMARK    1  A    between atoms: N1_1  and  C2_2 
REMARK    2  A    between atoms: C2_2  and  C3_3 
REMARK    3  A    between atoms: C6_6  and  C7_7 
REMARK    4  A    between atoms: C21_21  and  C22_22 
ROOT
ATOM      1  C7  UNK A   1     -17.810   5.687  26.458  1.00  0.00     0.079 A 
ATOM      2  N8  UNK A   1     -18.480   4.710  25.866  1.00  0.00    -0.246 NA
ATOM      3  C9  UNK A   1     -18.671   3.540  26.460  1.00  0.00     0.073 A 
ATOM      4  C10 UNK A   1     -19.415   2.461  25.801  1.00  0.00     0.050 A 
ATOM      5  C11 UNK A   1     -19.595   1.290  26.420  1.00  0.00     0.106 A 
ATOM      6  N12 UNK A   1     -19.104   1.032  27.681  1.00  0.00    -0.255 N 
ATOM      7  C13 UNK A   1     -19.184  -0.072  28.456  1.00  0.00     0.348 A 
ATOM      8  O14 UNK A   1     -19.739  -1.115  28.162  1.00  0.00    -0.245 OA
ATOM      9  N15 UNK A   1     -18.539   0.184  29.610  1.00  0.00    -0.226 N 
ATOM     10  H16 UNK A   1     -18.433  -0.427  30.357  1.00  0.00     0.194 HD
ATOM     11  N17 UNK A   1     -18.047   1.495  29.539  1.00  0.00    -0.151 NA
ATOM     12  C18 UNK A   1     -18.391   1.991  28.380  1.00  0.00     0.170 A 
ATOM     13  C19 UNK A   1     -18.156   3.304  27.757  1.00  0.00     0.042 A 
ATOM     14  C20 UNK A   1     -17.447   4.307  28.409  1.00  0.00     0.032 A 
ATOM     15  C21 UNK A   1     -17.265   5.520  27.745  1.00  0.00     0.005 A 
ENDROOT
BRANCH   1  16
ATOM     16  C6  UNK A   1     -17.624   6.974  25.751  1.00  0.00    -0.006 A 
ATOM     17  C5  UNK A   1     -16.373   7.320  25.240  1.00  0.00     0.014 A 
ATOM     18  C4  UNK A   1     -16.208   8.518  24.577  1.00  0.00     0.010 A 
ATOM     19  C3  UNK A   1     -17.278   9.384  24.429  1.00  0.00    -0.023 A 
ATOM     20  C29 UNK A   1     -18.522   9.048  24.935  1.00  0.00     0.010 A 
ATOM     21  C28 UNK A   1     -18.700   7.848  25.594  1.00  0.00     0.014 A 
BRANCH  19  22
ATOM     22  C2  UNK A   1     -17.089  10.694  23.710  1.00  0.00     0.150 C 
ATOM     23  C30 UNK A   1     -15.847  11.475  24.169  1.00  0.00     0.044 C 
ATOM     24  C31 UNK A   1     -15.626  11.835  22.688  1.00  0.00     0.005 C 
ATOM     25  C32 UNK A   1     -16.401  10.553  22.342  1.00  0.00     0.044 C 
BRANCH  22  26
ATOM     26  N1  UNK A   1     -18.313  11.505  23.672  1.00  0.00    -0.066 N 
ATOM     27  H33 UNK A   1     -18.290  12.229  24.376  1.00  0.00     0.275 HD
ATOM     28  H34 UNK A   1     -18.458  11.899  22.754  1.00  0.00     0.275 HD
ATOM     29  HN1 UNK A   1     -19.094  10.898  23.876  1.00  0.00     0.275 HD
ENDBRANCH  22  26
ENDBRANCH  19  22
ENDBRANCH   1  16
BRANCH  15  30
ATOM     30  C22 UNK A   1     -16.512   6.622  28.388  1.00  0.00    -0.024 A 
ATOM     31  C23 UNK A   1     -17.191   7.724  28.907  1.00  0.00     0.012 A 
ATOM     32  C24 UNK A   1     -16.485   8.745  29.508  1.00  0.00     0.001 A 
ATOM     33  C25 UNK A   1     -15.105   8.682  29.586  1.00  0.00     0.000 A 
ATOM     34  C26 UNK A   1     -14.426   7.595  29.068  1.00  0.00     0.001 A 
ATOM     35  C27 UNK A   1     -15.122   6.565  28.470  1.00  0.00     0.012 A 
ENDBRANCH  15  30
TORSDOF 4
ENDMDL
