REMARK  4 active torsions:
REMARK  status: ('A' for Active; 'I' for Inactive)
REMARK    1  A    between atoms: N1_1  and  C2_2 
REMARK    2  A    between atoms: C2_2  and  C3_3 
REMARK    3  A    between atoms: C6_6  and  C7_7 
REMARK    4  A    between atoms: C21_21  and  C22_22 
ROOT
ATOM      1  C7  UNK A   1     -18.423  -1.183  -1.049  1.00  0.00     0.079 A 
ATOM      2  N8  UNK A   1     -17.542  -2.172  -1.025  1.00  0.00    -0.246 NA
ATOM      3  C9  UNK A   1     -17.924  -3.442  -1.047  1.00  0.00     0.073 A 
ATOM      4  C10 UNK A   1     -16.945  -4.534  -1.022  1.00  0.00     0.050 A 
ATOM      5  C11 UNK A   1     -17.353  -5.806  -1.045  1.00  0.00     0.106 A 
ATOM      6  N12 UNK A   1     -18.684  -6.160  -1.091  1.00  0.00    -0.255 N 
ATOM      7  C13 UNK A   1     -19.280  -7.372  -1.120  1.00  0.00     0.348 A 
ATOM      8  O14 UNK A   1     -18.713  -8.450  -1.106  1.00  0.00    -0.245 OA
ATOM      9  N15 UNK A   1     -20.612  -7.178  -1.164  1.00  0.00    -0.226 N 
ATOM     10  H16 UNK A   1     -21.292  -7.870  -1.191  1.00  0.00     0.194 HD
ATOM     11  N17 UNK A   1     -20.839  -5.795  -1.163  1.00  0.00    -0.151 NA
ATOM     12  C18 UNK A   1     -19.678  -5.197  -1.119  1.00  0.00     0.170 A 
ATOM     13  C19 UNK A   1     -19.298  -3.775  -1.096  1.00  0.00     0.042 A 
ATOM     14  C20 UNK A   1     -20.251  -2.762  -1.122  1.00  0.00     0.032 A 
ATOM     15  C21 UNK A   1     -19.806  -1.441  -1.092  1.00  0.00     0.005 A 
ENDROOT
BRANCH   1  16
ATOM     16  C6  UNK A   1     -17.945   0.218  -1.023  1.00  0.00    -0.006 A 
ATOM     17  C5  UNK A   1     -18.629   1.206  -1.732  1.00  0.00     0.014 A 
ATOM     18  C4  UNK A   1     -18.182   2.510  -1.699  1.00  0.00     0.010 A 
ATOM     19  C3  UNK A   1     -17.050   2.839  -0.974  1.00  0.00    -0.023 A 
ATOM     20  C29 UNK A   1     -16.366   1.864  -0.269  1.00  0.00     0.010 A 
ATOM     21  C28 UNK A   1     -16.808   0.556  -0.289  1.00  0.00     0.014 A 
BRANCH  19  22
ATOM     22  C2  UNK A   1     -16.564   4.265  -0.948  1.00  0.00     0.150 C 
ATOM     23  C30 UNK A   1     -15.993   4.746  -2.292  1.00  0.00     0.044 C 
ATOM     24  C31 UNK A   1     -16.697   6.088  -2.018  1.00  0.00     0.005 C 
ATOM     25  C32 UNK A   1     -17.683   5.301  -1.139  1.00  0.00     0.044 C 
BRANCH  22  26
ATOM     26  N1  UNK A   1     -15.689   4.548   0.198  1.00  0.00    -0.066 N 
ATOM     27  H33 UNK A   1     -14.955   3.859   0.272  1.00  0.00     0.275 HD
ATOM     28  H34 UNK A   1     -15.306   5.479   0.139  1.00  0.00     0.275 HD
ATOM     29  HN1 UNK A   1     -16.250   4.495   1.037  1.00  0.00     0.275 HD
ENDBRANCH  22  26
ENDBRANCH  19  22
ENDBRANCH   1  16
BRANCH  15  30
ATOM     30  C22 UNK A   1     -20.776  -0.321  -1.111  1.00  0.00    -0.024 A 
ATOM     31  C23 UNK A   1     -20.680   0.704  -0.171  1.00  0.00     0.012 A 
ATOM     32  C24 UNK A   1     -21.584   1.746  -0.197  1.00  0.00     0.001 A 
ATOM     33  C25 UNK A   1     -22.590   1.769  -1.146  1.00  0.00     0.000 A 
ATOM     34  C26 UNK A   1     -22.694   0.752  -2.077  1.00  0.00     0.001 A 
ATOM     35  C27 UNK A   1     -21.792  -0.292  -2.065  1.00  0.00     0.012 A 
ENDBRANCH  15  30
TORSDOF 4
